*SPEF "ieee 1481-1999"
*DESIGN "wrapped_instrumented_adder_brent"
*DATE "11:11:11 Fri 11 11, 1111"
*VENDOR "OpenRCX"
*PROGRAM "Parallel Extraction"
*VERSION "1.0"
*DESIGN_FLOW "NAME_SCOPE LOCAL" "PIN_CAP NONE"
*DIVIDER /
*DELIMITER :
*BUS_DELIMITER []
*T_UNIT 1 NS
*C_UNIT 1 PF
*R_UNIT 1 OHM
*L_UNIT 1 HENRY

*NAME_MAP
*1 active
*2 la1_data_in[0]
*3 la1_data_in[10]
*4 la1_data_in[11]
*5 la1_data_in[12]
*6 la1_data_in[13]
*7 la1_data_in[14]
*8 la1_data_in[15]
*9 la1_data_in[16]
*10 la1_data_in[17]
*11 la1_data_in[18]
*12 la1_data_in[19]
*13 la1_data_in[1]
*14 la1_data_in[20]
*15 la1_data_in[21]
*16 la1_data_in[22]
*17 la1_data_in[23]
*18 la1_data_in[24]
*19 la1_data_in[25]
*20 la1_data_in[26]
*21 la1_data_in[27]
*22 la1_data_in[28]
*23 la1_data_in[29]
*24 la1_data_in[2]
*25 la1_data_in[30]
*26 la1_data_in[31]
*27 la1_data_in[3]
*28 la1_data_in[4]
*29 la1_data_in[5]
*30 la1_data_in[6]
*31 la1_data_in[7]
*32 la1_data_in[8]
*33 la1_data_in[9]
*34 la1_data_out[0]
*35 la1_data_out[10]
*36 la1_data_out[11]
*37 la1_data_out[12]
*38 la1_data_out[13]
*39 la1_data_out[14]
*40 la1_data_out[15]
*41 la1_data_out[16]
*42 la1_data_out[17]
*43 la1_data_out[18]
*44 la1_data_out[19]
*45 la1_data_out[1]
*46 la1_data_out[20]
*47 la1_data_out[21]
*48 la1_data_out[22]
*49 la1_data_out[23]
*50 la1_data_out[24]
*51 la1_data_out[25]
*52 la1_data_out[26]
*53 la1_data_out[27]
*54 la1_data_out[28]
*55 la1_data_out[29]
*56 la1_data_out[2]
*57 la1_data_out[30]
*58 la1_data_out[31]
*59 la1_data_out[3]
*60 la1_data_out[4]
*61 la1_data_out[5]
*62 la1_data_out[6]
*63 la1_data_out[7]
*64 la1_data_out[8]
*65 la1_data_out[9]
*66 la1_oenb[0]
*67 la1_oenb[10]
*68 la1_oenb[11]
*69 la1_oenb[12]
*70 la1_oenb[13]
*71 la1_oenb[14]
*72 la1_oenb[15]
*73 la1_oenb[16]
*74 la1_oenb[17]
*75 la1_oenb[18]
*76 la1_oenb[19]
*77 la1_oenb[1]
*78 la1_oenb[20]
*79 la1_oenb[21]
*80 la1_oenb[22]
*81 la1_oenb[23]
*82 la1_oenb[24]
*83 la1_oenb[25]
*84 la1_oenb[26]
*85 la1_oenb[27]
*86 la1_oenb[28]
*87 la1_oenb[29]
*88 la1_oenb[2]
*89 la1_oenb[30]
*90 la1_oenb[31]
*91 la1_oenb[3]
*92 la1_oenb[4]
*93 la1_oenb[5]
*94 la1_oenb[6]
*95 la1_oenb[7]
*96 la1_oenb[8]
*97 la1_oenb[9]
*98 la2_data_in[0]
*99 la2_data_in[10]
*100 la2_data_in[11]
*101 la2_data_in[12]
*102 la2_data_in[13]
*103 la2_data_in[14]
*104 la2_data_in[15]
*105 la2_data_in[16]
*106 la2_data_in[17]
*107 la2_data_in[18]
*108 la2_data_in[19]
*109 la2_data_in[1]
*110 la2_data_in[20]
*111 la2_data_in[21]
*112 la2_data_in[22]
*113 la2_data_in[23]
*114 la2_data_in[24]
*115 la2_data_in[25]
*116 la2_data_in[26]
*117 la2_data_in[27]
*118 la2_data_in[28]
*119 la2_data_in[29]
*120 la2_data_in[2]
*121 la2_data_in[30]
*122 la2_data_in[31]
*123 la2_data_in[3]
*124 la2_data_in[4]
*125 la2_data_in[5]
*126 la2_data_in[6]
*127 la2_data_in[7]
*128 la2_data_in[8]
*129 la2_data_in[9]
*130 la2_data_out[0]
*131 la2_data_out[10]
*132 la2_data_out[11]
*133 la2_data_out[12]
*134 la2_data_out[13]
*135 la2_data_out[14]
*136 la2_data_out[15]
*137 la2_data_out[16]
*138 la2_data_out[17]
*139 la2_data_out[18]
*140 la2_data_out[19]
*141 la2_data_out[1]
*142 la2_data_out[20]
*143 la2_data_out[21]
*144 la2_data_out[22]
*145 la2_data_out[23]
*146 la2_data_out[24]
*147 la2_data_out[25]
*148 la2_data_out[26]
*149 la2_data_out[27]
*150 la2_data_out[28]
*151 la2_data_out[29]
*152 la2_data_out[2]
*153 la2_data_out[30]
*154 la2_data_out[31]
*155 la2_data_out[3]
*156 la2_data_out[4]
*157 la2_data_out[5]
*158 la2_data_out[6]
*159 la2_data_out[7]
*160 la2_data_out[8]
*161 la2_data_out[9]
*162 la2_oenb[0]
*163 la2_oenb[10]
*164 la2_oenb[11]
*165 la2_oenb[12]
*166 la2_oenb[13]
*167 la2_oenb[14]
*168 la2_oenb[15]
*169 la2_oenb[16]
*170 la2_oenb[17]
*171 la2_oenb[18]
*172 la2_oenb[19]
*173 la2_oenb[1]
*174 la2_oenb[20]
*175 la2_oenb[21]
*176 la2_oenb[22]
*177 la2_oenb[23]
*178 la2_oenb[24]
*179 la2_oenb[25]
*180 la2_oenb[26]
*181 la2_oenb[27]
*182 la2_oenb[28]
*183 la2_oenb[29]
*184 la2_oenb[2]
*185 la2_oenb[30]
*186 la2_oenb[31]
*187 la2_oenb[3]
*188 la2_oenb[4]
*189 la2_oenb[5]
*190 la2_oenb[6]
*191 la2_oenb[7]
*192 la2_oenb[8]
*193 la2_oenb[9]
*194 la3_data_in[0]
*195 la3_data_in[10]
*196 la3_data_in[11]
*197 la3_data_in[12]
*198 la3_data_in[13]
*199 la3_data_in[14]
*200 la3_data_in[15]
*201 la3_data_in[16]
*202 la3_data_in[17]
*203 la3_data_in[18]
*204 la3_data_in[19]
*205 la3_data_in[1]
*206 la3_data_in[20]
*207 la3_data_in[21]
*208 la3_data_in[22]
*209 la3_data_in[23]
*210 la3_data_in[24]
*211 la3_data_in[25]
*212 la3_data_in[26]
*213 la3_data_in[27]
*214 la3_data_in[28]
*215 la3_data_in[29]
*216 la3_data_in[2]
*217 la3_data_in[30]
*218 la3_data_in[31]
*219 la3_data_in[3]
*220 la3_data_in[4]
*221 la3_data_in[5]
*222 la3_data_in[6]
*223 la3_data_in[7]
*224 la3_data_in[8]
*225 la3_data_in[9]
*226 la3_data_out[0]
*227 la3_data_out[10]
*228 la3_data_out[11]
*229 la3_data_out[12]
*230 la3_data_out[13]
*231 la3_data_out[14]
*232 la3_data_out[15]
*233 la3_data_out[16]
*234 la3_data_out[17]
*235 la3_data_out[18]
*236 la3_data_out[19]
*237 la3_data_out[1]
*238 la3_data_out[20]
*239 la3_data_out[21]
*240 la3_data_out[22]
*241 la3_data_out[23]
*242 la3_data_out[24]
*243 la3_data_out[25]
*244 la3_data_out[26]
*245 la3_data_out[27]
*246 la3_data_out[28]
*247 la3_data_out[29]
*248 la3_data_out[2]
*249 la3_data_out[30]
*250 la3_data_out[31]
*251 la3_data_out[3]
*252 la3_data_out[4]
*253 la3_data_out[5]
*254 la3_data_out[6]
*255 la3_data_out[7]
*256 la3_data_out[8]
*257 la3_data_out[9]
*258 la3_oenb[0]
*259 la3_oenb[10]
*260 la3_oenb[11]
*261 la3_oenb[12]
*262 la3_oenb[13]
*263 la3_oenb[14]
*264 la3_oenb[15]
*265 la3_oenb[16]
*266 la3_oenb[17]
*267 la3_oenb[18]
*268 la3_oenb[19]
*269 la3_oenb[1]
*270 la3_oenb[20]
*271 la3_oenb[21]
*272 la3_oenb[22]
*273 la3_oenb[23]
*274 la3_oenb[24]
*275 la3_oenb[25]
*276 la3_oenb[26]
*277 la3_oenb[27]
*278 la3_oenb[28]
*279 la3_oenb[29]
*280 la3_oenb[2]
*281 la3_oenb[30]
*282 la3_oenb[31]
*283 la3_oenb[3]
*284 la3_oenb[4]
*285 la3_oenb[5]
*286 la3_oenb[6]
*287 la3_oenb[7]
*288 la3_oenb[8]
*289 la3_oenb[9]
*292 wb_clk_i
*293 _0000_
*294 _0001_
*295 _0002_
*296 _0003_
*297 _0004_
*298 _0005_
*299 _0006_
*300 _0007_
*301 _0008_
*302 _0009_
*303 _0010_
*304 _0011_
*305 _0012_
*306 _0013_
*307 _0014_
*308 _0015_
*309 _0016_
*310 _0017_
*311 _0018_
*312 _0019_
*313 _0020_
*314 _0021_
*315 _0022_
*316 _0023_
*317 _0024_
*318 _0025_
*319 _0026_
*320 _0027_
*321 _0028_
*322 _0029_
*323 _0030_
*324 _0031_
*325 _0032_
*326 _0033_
*327 _0034_
*328 _0035_
*329 _0036_
*330 _0037_
*331 _0038_
*332 _0039_
*333 _0040_
*334 _0041_
*335 _0042_
*336 _0043_
*337 _0044_
*338 _0045_
*339 _0046_
*340 _0047_
*341 _0048_
*342 _0049_
*343 _0050_
*344 _0051_
*345 _0052_
*346 _0053_
*347 _0054_
*348 _0055_
*349 _0056_
*350 _0057_
*351 _0058_
*352 _0059_
*353 _0060_
*354 _0061_
*355 _0062_
*356 _0063_
*357 _0064_
*358 _0065_
*359 _0066_
*360 _0067_
*361 _0068_
*362 _0069_
*363 _0070_
*364 _0071_
*365 _0072_
*366 _0073_
*367 _0074_
*368 _0075_
*369 _0076_
*370 _0077_
*371 _0078_
*372 _0079_
*373 _0080_
*374 _0081_
*375 _0082_
*376 _0083_
*377 _0084_
*378 _0085_
*379 _0086_
*380 _0087_
*381 _0088_
*382 _0089_
*383 _0090_
*384 _0091_
*385 _0092_
*386 _0093_
*387 _0094_
*388 _0095_
*389 _0096_
*390 _0097_
*391 _0098_
*392 _0099_
*393 _0100_
*394 _0101_
*395 _0102_
*396 _0103_
*397 _0104_
*398 _0105_
*399 _0106_
*400 _0107_
*401 _0108_
*402 _0109_
*403 _0110_
*404 _0111_
*405 _0112_
*406 _0113_
*407 _0114_
*408 _0115_
*409 _0116_
*410 _0117_
*411 _0118_
*412 _0119_
*413 _0120_
*414 _0121_
*415 _0122_
*416 _0123_
*417 _0124_
*418 _0125_
*419 _0126_
*420 _0127_
*421 _0128_
*422 _0129_
*423 _0130_
*424 _0131_
*425 _0132_
*426 _0133_
*427 _0134_
*428 _0135_
*429 _0136_
*430 _0137_
*431 _0138_
*432 _0139_
*433 _0140_
*434 _0141_
*435 _0142_
*436 _0143_
*437 _0144_
*438 _0145_
*439 _0146_
*440 _0147_
*441 _0148_
*442 _0149_
*443 _0150_
*444 _0151_
*445 _0152_
*446 _0153_
*447 _0154_
*448 _0155_
*449 _0156_
*450 _0157_
*451 _0158_
*452 _0159_
*453 _0160_
*454 _0161_
*455 _0162_
*456 _0163_
*457 _0164_
*458 _0165_
*459 _0166_
*460 _0167_
*461 _0168_
*462 _0169_
*463 _0170_
*464 _0171_
*465 _0172_
*466 _0173_
*467 _0174_
*468 _0175_
*469 _0176_
*470 _0177_
*471 _0178_
*472 _0179_
*473 _0180_
*474 _0181_
*475 _0182_
*476 _0183_
*477 _0184_
*478 _0185_
*479 _0186_
*480 _0187_
*481 _0188_
*482 _0189_
*483 _0190_
*484 _0191_
*485 _0192_
*486 _0193_
*487 _0194_
*488 _0195_
*489 _0196_
*490 _0197_
*491 _0198_
*492 _0199_
*493 _0200_
*494 _0201_
*495 _0202_
*496 _0203_
*497 _0204_
*498 _0205_
*499 _0206_
*500 _0207_
*501 _0208_
*502 _0209_
*503 _0210_
*504 _0211_
*505 _0212_
*506 _0213_
*507 _0214_
*508 _0215_
*509 _0216_
*510 _0217_
*511 _0218_
*512 _0219_
*513 _0220_
*514 _0221_
*515 _0222_
*516 _0223_
*517 _0224_
*518 _0225_
*519 _0226_
*520 _0227_
*521 _0228_
*522 _0229_
*523 _0230_
*524 _0231_
*525 _0232_
*526 _0233_
*527 _0234_
*528 _0235_
*529 _0236_
*530 _0237_
*531 _0238_
*532 _0239_
*533 _0240_
*534 _0241_
*535 _0242_
*536 _0243_
*537 _0244_
*538 _0245_
*539 _0246_
*540 _0247_
*541 _0248_
*542 _0249_
*543 _0250_
*544 _0251_
*545 _0252_
*546 _0253_
*547 _0254_
*548 _0255_
*549 _0256_
*550 _0257_
*551 _0258_
*552 _0259_
*553 _0260_
*554 _0261_
*555 _0262_
*556 _0263_
*557 _0264_
*558 _0265_
*559 _0266_
*560 _0267_
*561 _0268_
*562 _0269_
*563 _0270_
*564 _0271_
*565 _0272_
*566 _0273_
*567 _0274_
*568 _0275_
*569 _0276_
*570 _0277_
*571 _0278_
*572 _0279_
*573 _0280_
*574 _0281_
*575 _0282_
*576 _0283_
*577 _0284_
*578 _0285_
*579 _0286_
*580 _0287_
*581 _0288_
*582 _0289_
*583 _0290_
*584 _0291_
*585 _0292_
*586 _0293_
*587 _0294_
*588 _0295_
*589 _0296_
*590 _0297_
*591 _0298_
*592 _0299_
*593 _0300_
*594 _0301_
*595 _0302_
*596 _0303_
*597 _0304_
*598 _0305_
*599 _0306_
*600 _0307_
*601 _0308_
*602 _0309_
*603 _0310_
*604 _0311_
*605 _0312_
*606 _0313_
*607 _0314_
*608 _0315_
*609 _0316_
*610 _0317_
*611 _0318_
*612 _0319_
*613 _0320_
*614 _0321_
*615 _0322_
*616 _0323_
*617 _0324_
*618 _0325_
*619 _0326_
*620 _0327_
*621 _0328_
*622 _0329_
*623 _0330_
*624 _0331_
*625 _0332_
*626 _0333_
*627 _0334_
*628 _0335_
*629 _0336_
*630 _0337_
*631 _0338_
*632 _0339_
*633 _0340_
*634 _0341_
*635 _0342_
*636 _0343_
*637 _0344_
*638 _0345_
*639 _0346_
*640 _0347_
*641 _0348_
*642 _0349_
*643 _0350_
*644 _0351_
*645 _0352_
*646 _0353_
*647 _0354_
*648 _0355_
*649 _0356_
*650 _0357_
*651 _0358_
*652 _0359_
*653 _0360_
*654 _0361_
*655 _0362_
*656 _0363_
*657 _0364_
*658 _0365_
*659 _0366_
*660 _0367_
*661 _0368_
*662 _0369_
*663 _0370_
*664 _0371_
*665 _0372_
*666 _0373_
*667 _0374_
*668 _0375_
*669 _0376_
*670 _0377_
*671 _0378_
*672 _0379_
*673 _0380_
*674 _0381_
*675 _0382_
*676 _0383_
*677 _0384_
*678 _0385_
*679 _0386_
*680 _0387_
*681 _0388_
*682 _0389_
*683 _0390_
*684 _0391_
*685 _0392_
*686 _0393_
*687 _0394_
*688 _0395_
*689 _0396_
*690 _0397_
*691 _0398_
*692 _0399_
*693 _0400_
*694 _0401_
*695 _0402_
*696 _0403_
*697 _0404_
*698 _0405_
*699 _0406_
*700 _0407_
*701 _0408_
*702 _0409_
*703 _0410_
*704 _0411_
*705 _0412_
*706 _0413_
*707 _0414_
*708 _0415_
*709 _0416_
*710 _0417_
*711 _0418_
*712 _0419_
*713 _0420_
*714 _0421_
*715 _0422_
*716 _0423_
*717 _0424_
*718 _0425_
*719 _0426_
*720 _0427_
*721 _0428_
*722 _0429_
*723 _0430_
*724 _0431_
*725 _0432_
*726 _0433_
*727 _0434_
*728 _0435_
*729 _0436_
*730 _0437_
*731 _0438_
*732 _0439_
*733 _0440_
*734 _0441_
*735 _0442_
*736 _0443_
*737 _0444_
*738 _0445_
*739 _0446_
*740 _0447_
*741 _0448_
*742 _0449_
*743 _0450_
*744 _0451_
*745 _0452_
*746 _0453_
*747 _0454_
*748 _0455_
*749 _0456_
*750 _0457_
*751 _0458_
*752 _0459_
*753 _0460_
*754 _0461_
*755 _0462_
*756 _0463_
*757 _0464_
*758 _0465_
*759 _0466_
*760 _0467_
*761 _0468_
*762 _0469_
*763 _0470_
*764 _0471_
*765 _0472_
*766 _0473_
*767 _0474_
*768 _0475_
*769 _0476_
*770 _0477_
*771 _0478_
*772 _0479_
*773 _0480_
*774 _0481_
*775 _0482_
*776 _0483_
*777 _0484_
*778 _0485_
*779 _0486_
*780 _0487_
*781 _0488_
*782 _0489_
*783 _0490_
*784 _0491_
*785 _0492_
*786 _0493_
*787 _0494_
*788 _0495_
*789 _0496_
*790 _0497_
*791 _0498_
*792 _0499_
*793 _0500_
*794 _0501_
*795 _0502_
*796 _0503_
*797 _0504_
*798 _0505_
*799 _0506_
*800 _0507_
*801 _0508_
*802 _0509_
*803 _0510_
*804 _0511_
*805 _0512_
*806 _0513_
*807 _0514_
*808 _0515_
*809 _0516_
*810 _0517_
*811 _0518_
*812 _0519_
*813 _0520_
*814 _0521_
*815 _0522_
*816 _0523_
*817 _0524_
*818 _0525_
*819 _0526_
*820 _0527_
*821 _0528_
*822 _0529_
*823 _0530_
*824 _0531_
*825 _0532_
*826 _0533_
*827 _0534_
*828 _0535_
*829 _0536_
*830 _0537_
*831 _0538_
*832 _0539_
*833 _0540_
*834 clknet_0_wb_clk_i
*835 clknet_1_0_0_wb_clk_i
*836 clknet_1_1_0_wb_clk_i
*837 clknet_2_0_0_wb_clk_i
*838 clknet_2_1_0_wb_clk_i
*839 clknet_2_2_0_wb_clk_i
*840 clknet_2_3_0_wb_clk_i
*841 instrumented_adder\.brent_kung\.n3_tree_0
*842 instrumented_adder\.bypass1\.A
*843 instrumented_adder\.bypass1\.Z
*844 instrumented_adder\.bypass2\.TE_B
*845 instrumented_adder\.bypass2\.Z
*846 instrumented_adder\.chain_in
*847 instrumented_adder\.chain_out
*848 instrumented_adder\.control1\.Z
*849 instrumented_adder\.control2\.A
*850 instrumented_adder\.control2\.TE_B
*851 instrumented_adder\.control_inverters\[0\]\.Y
*852 instrumented_adder\.control_inverters\[1\]\.Y
*853 instrumented_adder\.control_inverters\[2\]\.Y
*854 instrumented_adder\.done
*855 instrumented_adder\.f0
*856 instrumented_adder\.integration_counter\[0\]
*857 instrumented_adder\.integration_counter\[10\]
*858 instrumented_adder\.integration_counter\[11\]
*859 instrumented_adder\.integration_counter\[12\]
*860 instrumented_adder\.integration_counter\[13\]
*861 instrumented_adder\.integration_counter\[14\]
*862 instrumented_adder\.integration_counter\[15\]
*863 instrumented_adder\.integration_counter\[16\]
*864 instrumented_adder\.integration_counter\[17\]
*865 instrumented_adder\.integration_counter\[18\]
*866 instrumented_adder\.integration_counter\[19\]
*867 instrumented_adder\.integration_counter\[1\]
*868 instrumented_adder\.integration_counter\[20\]
*869 instrumented_adder\.integration_counter\[21\]
*870 instrumented_adder\.integration_counter\[22\]
*871 instrumented_adder\.integration_counter\[23\]
*872 instrumented_adder\.integration_counter\[24\]
*873 instrumented_adder\.integration_counter\[25\]
*874 instrumented_adder\.integration_counter\[26\]
*875 instrumented_adder\.integration_counter\[27\]
*876 instrumented_adder\.integration_counter\[28\]
*877 instrumented_adder\.integration_counter\[29\]
*878 instrumented_adder\.integration_counter\[2\]
*879 instrumented_adder\.integration_counter\[30\]
*880 instrumented_adder\.integration_counter\[31\]
*881 instrumented_adder\.integration_counter\[3\]
*882 instrumented_adder\.integration_counter\[4\]
*883 instrumented_adder\.integration_counter\[5\]
*884 instrumented_adder\.integration_counter\[6\]
*885 instrumented_adder\.integration_counter\[7\]
*886 instrumented_adder\.integration_counter\[8\]
*887 instrumented_adder\.integration_counter\[9\]
*888 instrumented_adder\.inverters\[0\]\.Y
*889 instrumented_adder\.inverters\[10\]\.A
*890 instrumented_adder\.inverters\[10\]\.Y
*891 instrumented_adder\.inverters\[11\]\.Y
*892 instrumented_adder\.inverters\[12\]\.Y
*893 instrumented_adder\.inverters\[13\]\.Y
*894 instrumented_adder\.inverters\[14\]\.Y
*895 instrumented_adder\.inverters\[15\]\.Y
*896 instrumented_adder\.inverters\[16\]\.Y
*897 instrumented_adder\.inverters\[17\]\.Y
*898 instrumented_adder\.inverters\[18\]\.Y
*899 instrumented_adder\.inverters\[19\]\.Y
*900 instrumented_adder\.inverters\[1\]\.Y
*901 instrumented_adder\.inverters\[20\]\.Y
*902 instrumented_adder\.inverters\[21\]\.Y
*903 instrumented_adder\.inverters\[22\]\.Y
*904 instrumented_adder\.inverters\[23\]\.Y
*905 instrumented_adder\.inverters\[24\]\.Y
*906 instrumented_adder\.inverters\[25\]\.Y
*907 instrumented_adder\.inverters\[26\]\.Y
*908 instrumented_adder\.inverters\[27\]\.Y
*909 instrumented_adder\.inverters\[28\]\.Y
*910 instrumented_adder\.inverters\[29\]\.Y
*911 instrumented_adder\.inverters\[2\]\.Y
*912 instrumented_adder\.inverters\[3\]\.Y
*913 instrumented_adder\.inverters\[4\]\.Y
*914 instrumented_adder\.inverters\[5\]\.Y
*915 instrumented_adder\.inverters\[6\]\.Y
*916 instrumented_adder\.inverters\[7\]\.Y
*917 instrumented_adder\.inverters\[8\]\.Y
*918 instrumented_adder\.r2
*919 instrumented_adder\.ring_osc_counter\[0\]
*920 instrumented_adder\.ring_osc_counter\[10\]
*921 instrumented_adder\.ring_osc_counter\[11\]
*922 instrumented_adder\.ring_osc_counter\[12\]
*923 instrumented_adder\.ring_osc_counter\[13\]
*924 instrumented_adder\.ring_osc_counter\[14\]
*925 instrumented_adder\.ring_osc_counter\[15\]
*926 instrumented_adder\.ring_osc_counter\[16\]
*927 instrumented_adder\.ring_osc_counter\[17\]
*928 instrumented_adder\.ring_osc_counter\[18\]
*929 instrumented_adder\.ring_osc_counter\[19\]
*930 instrumented_adder\.ring_osc_counter\[1\]
*931 instrumented_adder\.ring_osc_counter\[20\]
*932 instrumented_adder\.ring_osc_counter\[21\]
*933 instrumented_adder\.ring_osc_counter\[22\]
*934 instrumented_adder\.ring_osc_counter\[23\]
*935 instrumented_adder\.ring_osc_counter\[24\]
*936 instrumented_adder\.ring_osc_counter\[25\]
*937 instrumented_adder\.ring_osc_counter\[26\]
*938 instrumented_adder\.ring_osc_counter\[27\]
*939 instrumented_adder\.ring_osc_counter\[28\]
*940 instrumented_adder\.ring_osc_counter\[29\]
*941 instrumented_adder\.ring_osc_counter\[2\]
*942 instrumented_adder\.ring_osc_counter\[30\]
*943 instrumented_adder\.ring_osc_counter\[31\]
*944 instrumented_adder\.ring_osc_counter\[3\]
*945 instrumented_adder\.ring_osc_counter\[4\]
*946 instrumented_adder\.ring_osc_counter\[5\]
*947 instrumented_adder\.ring_osc_counter\[6\]
*948 instrumented_adder\.ring_osc_counter\[7\]
*949 instrumented_adder\.ring_osc_counter\[8\]
*950 instrumented_adder\.ring_osc_counter\[9\]
*951 instrumented_adder\.tristate_ext_inputs\[0\]\.TE_B
*952 instrumented_adder\.tristate_ext_inputs\[0\]\.Z
*953 instrumented_adder\.tristate_ext_inputs\[1\]\.TE_B
*954 instrumented_adder\.tristate_ext_inputs\[1\]\.Z
*955 instrumented_adder\.tristate_ext_inputs\[2\]\.TE_B
*956 instrumented_adder\.tristate_ext_inputs\[2\]\.Z
*957 instrumented_adder\.tristate_ext_inputs\[3\]\.TE_B
*958 instrumented_adder\.tristate_ext_inputs\[3\]\.Z
*959 instrumented_adder\.tristate_ext_inputs\[4\]\.TE_B
*960 instrumented_adder\.tristate_ext_inputs\[4\]\.Z
*961 instrumented_adder\.tristate_ext_inputs\[5\]\.TE_B
*962 instrumented_adder\.tristate_ext_inputs\[5\]\.Z
*963 instrumented_adder\.tristate_ext_inputs\[6\]\.TE_B
*964 instrumented_adder\.tristate_ext_inputs\[6\]\.Z
*965 instrumented_adder\.tristate_ext_inputs\[7\]\.TE_B
*966 instrumented_adder\.tristate_ext_inputs\[7\]\.Z
*967 instrumented_adder\.tristate_sum_outputs\[1\]\.A
*968 instrumented_adder\.tristate_sum_outputs\[1\]\.TE_B
*969 instrumented_adder\.tristate_sum_outputs\[2\]\.A
*970 instrumented_adder\.tristate_sum_outputs\[2\]\.TE_B
*971 instrumented_adder\.tristate_sum_outputs\[3\]\.A
*972 instrumented_adder\.tristate_sum_outputs\[3\]\.TE_B
*973 instrumented_adder\.tristate_sum_outputs\[4\]\.A
*974 instrumented_adder\.tristate_sum_outputs\[4\]\.TE_B
*975 instrumented_adder\.tristate_sum_outputs\[5\]\.A
*976 instrumented_adder\.tristate_sum_outputs\[5\]\.TE_B
*977 instrumented_adder\.tristate_sum_outputs\[6\]\.A
*978 instrumented_adder\.tristate_sum_outputs\[6\]\.TE_B
*979 instrumented_adder\.tristate_sum_outputs\[7\]\.A
*980 instrumented_adder\.tristate_sum_outputs\[7\]\.TE_B
*981 net1
*982 net10
*983 net100
*984 net101
*985 net102
*986 net103
*987 net104
*988 net105
*989 net106
*990 net107
*991 net108
*992 net109
*993 net11
*994 net110
*995 net111
*996 net112
*997 net113
*998 net114
*999 net115
*1000 net116
*1001 net117
*1002 net118
*1003 net119
*1004 net12
*1005 net120
*1006 net121
*1007 net122
*1008 net123
*1009 net124
*1010 net125
*1011 net126
*1012 net127
*1013 net128
*1014 net129
*1015 net13
*1016 net130
*1017 net131
*1018 net132
*1019 net133
*1020 net134
*1021 net135
*1022 net14
*1023 net15
*1024 net16
*1025 net17
*1026 net18
*1027 net19
*1028 net2
*1029 net20
*1030 net21
*1031 net22
*1032 net23
*1033 net24
*1034 net25
*1035 net26
*1036 net27
*1037 net28
*1038 net29
*1039 net3
*1040 net30
*1041 net31
*1042 net32
*1043 net33
*1044 net34
*1045 net35
*1046 net36
*1047 net37
*1048 net38
*1049 net39
*1050 net4
*1051 net40
*1052 net41
*1053 net42
*1054 net43
*1055 net44
*1056 net45
*1057 net46
*1058 net47
*1059 net48
*1060 net49
*1061 net5
*1062 net50
*1063 net51
*1064 net52
*1065 net53
*1066 net54
*1067 net55
*1068 net56
*1069 net57
*1070 net58
*1071 net59
*1072 net6
*1073 net60
*1074 net61
*1075 net62
*1076 net63
*1077 net64
*1078 net65
*1079 net66
*1080 net67
*1081 net68
*1082 net69
*1083 net7
*1084 net70
*1085 net71
*1086 net72
*1087 net73
*1088 net74
*1089 net75
*1090 net76
*1091 net77
*1092 net78
*1093 net79
*1094 net8
*1095 net80
*1096 net81
*1097 net82
*1098 net83
*1099 net84
*1100 net85
*1101 net86
*1102 net87
*1103 net88
*1104 net89
*1105 net9
*1106 net90
*1107 net91
*1108 net92
*1109 net93
*1110 net94
*1111 net95
*1112 net96
*1113 net97
*1114 net98
*1115 net99
*1116 ANTENNA_0
*1117 ANTENNA_1
*1118 ANTENNA_10
*1119 ANTENNA_2
*1120 ANTENNA_3
*1121 ANTENNA_4
*1122 ANTENNA_5
*1123 ANTENNA_6
*1124 ANTENNA_7
*1125 ANTENNA_8
*1126 ANTENNA_9
*1127 FILLER_0_107
*1128 FILLER_0_111
*1129 FILLER_0_113
*1130 FILLER_0_125
*1131 FILLER_0_137
*1132 FILLER_0_141
*1133 FILLER_0_153
*1134 FILLER_0_164
*1135 FILLER_0_169
*1136 FILLER_0_177
*1137 FILLER_0_184
*1138 FILLER_0_191
*1139 FILLER_0_195
*1140 FILLER_0_200
*1141 FILLER_0_207
*1142 FILLER_0_217
*1143 FILLER_0_223
*1144 FILLER_0_225
*1145 FILLER_0_24
*1146 FILLER_0_242
*1147 FILLER_0_250
*1148 FILLER_0_253
*1149 FILLER_0_275
*1150 FILLER_0_279
*1151 FILLER_0_291
*1152 FILLER_0_301
*1153 FILLER_0_307
*1154 FILLER_0_309
*1155 FILLER_0_314
*1156 FILLER_0_326
*1157 FILLER_0_33
*1158 FILLER_0_334
*1159 FILLER_0_337
*1160 FILLER_0_349
*1161 FILLER_0_361
*1162 FILLER_0_365
*1163 FILLER_0_373
*1164 FILLER_0_377
*1165 FILLER_0_385
*1166 FILLER_0_391
*1167 FILLER_0_393
*1168 FILLER_0_401
*1169 FILLER_0_406
*1170 FILLER_0_412
*1171 FILLER_0_416
*1172 FILLER_0_421
*1173 FILLER_0_429
*1174 FILLER_0_437
*1175 FILLER_0_444
*1176 FILLER_0_449
*1177 FILLER_0_461
*1178 FILLER_0_472
*1179 FILLER_0_477
*1180 FILLER_0_48
*1181 FILLER_0_486
*1182 FILLER_0_500
*1183 FILLER_0_505
*1184 FILLER_0_512
*1185 FILLER_0_57
*1186 FILLER_0_80
*1187 FILLER_0_85
*1188 FILLER_0_95
*1189 FILLER_10_109
*1190 FILLER_10_121
*1191 FILLER_10_133
*1192 FILLER_10_139
*1193 FILLER_10_141
*1194 FILLER_10_15
*1195 FILLER_10_153
*1196 FILLER_10_165
*1197 FILLER_10_177
*1198 FILLER_10_189
*1199 FILLER_10_195
*1200 FILLER_10_197
*1201 FILLER_10_209
*1202 FILLER_10_221
*1203 FILLER_10_233
*1204 FILLER_10_245
*1205 FILLER_10_251
*1206 FILLER_10_253
*1207 FILLER_10_265
*1208 FILLER_10_27
*1209 FILLER_10_277
*1210 FILLER_10_289
*1211 FILLER_10_29
*1212 FILLER_10_3
*1213 FILLER_10_301
*1214 FILLER_10_307
*1215 FILLER_10_309
*1216 FILLER_10_321
*1217 FILLER_10_333
*1218 FILLER_10_345
*1219 FILLER_10_357
*1220 FILLER_10_363
*1221 FILLER_10_365
*1222 FILLER_10_377
*1223 FILLER_10_389
*1224 FILLER_10_401
*1225 FILLER_10_41
*1226 FILLER_10_413
*1227 FILLER_10_419
*1228 FILLER_10_421
*1229 FILLER_10_433
*1230 FILLER_10_445
*1231 FILLER_10_457
*1232 FILLER_10_469
*1233 FILLER_10_475
*1234 FILLER_10_477
*1235 FILLER_10_481
*1236 FILLER_10_495
*1237 FILLER_10_512
*1238 FILLER_10_53
*1239 FILLER_10_65
*1240 FILLER_10_77
*1241 FILLER_10_83
*1242 FILLER_10_85
*1243 FILLER_10_97
*1244 FILLER_11_105
*1245 FILLER_11_111
*1246 FILLER_11_113
*1247 FILLER_11_125
*1248 FILLER_11_137
*1249 FILLER_11_149
*1250 FILLER_11_15
*1251 FILLER_11_161
*1252 FILLER_11_167
*1253 FILLER_11_169
*1254 FILLER_11_181
*1255 FILLER_11_193
*1256 FILLER_11_205
*1257 FILLER_11_217
*1258 FILLER_11_223
*1259 FILLER_11_225
*1260 FILLER_11_237
*1261 FILLER_11_249
*1262 FILLER_11_261
*1263 FILLER_11_27
*1264 FILLER_11_273
*1265 FILLER_11_279
*1266 FILLER_11_281
*1267 FILLER_11_293
*1268 FILLER_11_3
*1269 FILLER_11_305
*1270 FILLER_11_317
*1271 FILLER_11_329
*1272 FILLER_11_335
*1273 FILLER_11_337
*1274 FILLER_11_349
*1275 FILLER_11_361
*1276 FILLER_11_373
*1277 FILLER_11_385
*1278 FILLER_11_39
*1279 FILLER_11_391
*1280 FILLER_11_393
*1281 FILLER_11_405
*1282 FILLER_11_417
*1283 FILLER_11_429
*1284 FILLER_11_441
*1285 FILLER_11_447
*1286 FILLER_11_449
*1287 FILLER_11_461
*1288 FILLER_11_473
*1289 FILLER_11_485
*1290 FILLER_11_497
*1291 FILLER_11_503
*1292 FILLER_11_505
*1293 FILLER_11_51
*1294 FILLER_11_512
*1295 FILLER_11_55
*1296 FILLER_11_57
*1297 FILLER_11_69
*1298 FILLER_11_81
*1299 FILLER_11_93
*1300 FILLER_12_109
*1301 FILLER_12_121
*1302 FILLER_12_133
*1303 FILLER_12_139
*1304 FILLER_12_141
*1305 FILLER_12_15
*1306 FILLER_12_153
*1307 FILLER_12_165
*1308 FILLER_12_177
*1309 FILLER_12_189
*1310 FILLER_12_195
*1311 FILLER_12_197
*1312 FILLER_12_209
*1313 FILLER_12_221
*1314 FILLER_12_233
*1315 FILLER_12_245
*1316 FILLER_12_251
*1317 FILLER_12_253
*1318 FILLER_12_265
*1319 FILLER_12_27
*1320 FILLER_12_277
*1321 FILLER_12_289
*1322 FILLER_12_29
*1323 FILLER_12_3
*1324 FILLER_12_301
*1325 FILLER_12_307
*1326 FILLER_12_309
*1327 FILLER_12_321
*1328 FILLER_12_333
*1329 FILLER_12_345
*1330 FILLER_12_357
*1331 FILLER_12_363
*1332 FILLER_12_365
*1333 FILLER_12_377
*1334 FILLER_12_389
*1335 FILLER_12_401
*1336 FILLER_12_41
*1337 FILLER_12_413
*1338 FILLER_12_419
*1339 FILLER_12_421
*1340 FILLER_12_433
*1341 FILLER_12_445
*1342 FILLER_12_457
*1343 FILLER_12_469
*1344 FILLER_12_475
*1345 FILLER_12_477
*1346 FILLER_12_489
*1347 FILLER_12_501
*1348 FILLER_12_505
*1349 FILLER_12_512
*1350 FILLER_12_53
*1351 FILLER_12_65
*1352 FILLER_12_77
*1353 FILLER_12_83
*1354 FILLER_12_85
*1355 FILLER_12_97
*1356 FILLER_13_105
*1357 FILLER_13_111
*1358 FILLER_13_113
*1359 FILLER_13_125
*1360 FILLER_13_137
*1361 FILLER_13_149
*1362 FILLER_13_15
*1363 FILLER_13_161
*1364 FILLER_13_167
*1365 FILLER_13_169
*1366 FILLER_13_181
*1367 FILLER_13_193
*1368 FILLER_13_205
*1369 FILLER_13_217
*1370 FILLER_13_223
*1371 FILLER_13_225
*1372 FILLER_13_237
*1373 FILLER_13_249
*1374 FILLER_13_261
*1375 FILLER_13_27
*1376 FILLER_13_273
*1377 FILLER_13_279
*1378 FILLER_13_281
*1379 FILLER_13_293
*1380 FILLER_13_3
*1381 FILLER_13_305
*1382 FILLER_13_317
*1383 FILLER_13_329
*1384 FILLER_13_335
*1385 FILLER_13_337
*1386 FILLER_13_349
*1387 FILLER_13_361
*1388 FILLER_13_373
*1389 FILLER_13_385
*1390 FILLER_13_39
*1391 FILLER_13_391
*1392 FILLER_13_393
*1393 FILLER_13_405
*1394 FILLER_13_417
*1395 FILLER_13_429
*1396 FILLER_13_441
*1397 FILLER_13_447
*1398 FILLER_13_449
*1399 FILLER_13_461
*1400 FILLER_13_473
*1401 FILLER_13_485
*1402 FILLER_13_497
*1403 FILLER_13_503
*1404 FILLER_13_505
*1405 FILLER_13_51
*1406 FILLER_13_512
*1407 FILLER_13_55
*1408 FILLER_13_57
*1409 FILLER_13_69
*1410 FILLER_13_81
*1411 FILLER_13_93
*1412 FILLER_14_109
*1413 FILLER_14_121
*1414 FILLER_14_133
*1415 FILLER_14_139
*1416 FILLER_14_141
*1417 FILLER_14_15
*1418 FILLER_14_153
*1419 FILLER_14_165
*1420 FILLER_14_177
*1421 FILLER_14_189
*1422 FILLER_14_195
*1423 FILLER_14_197
*1424 FILLER_14_209
*1425 FILLER_14_221
*1426 FILLER_14_233
*1427 FILLER_14_245
*1428 FILLER_14_251
*1429 FILLER_14_253
*1430 FILLER_14_265
*1431 FILLER_14_27
*1432 FILLER_14_277
*1433 FILLER_14_289
*1434 FILLER_14_29
*1435 FILLER_14_3
*1436 FILLER_14_301
*1437 FILLER_14_307
*1438 FILLER_14_309
*1439 FILLER_14_321
*1440 FILLER_14_333
*1441 FILLER_14_345
*1442 FILLER_14_357
*1443 FILLER_14_363
*1444 FILLER_14_365
*1445 FILLER_14_377
*1446 FILLER_14_389
*1447 FILLER_14_401
*1448 FILLER_14_41
*1449 FILLER_14_413
*1450 FILLER_14_419
*1451 FILLER_14_421
*1452 FILLER_14_433
*1453 FILLER_14_445
*1454 FILLER_14_457
*1455 FILLER_14_469
*1456 FILLER_14_475
*1457 FILLER_14_477
*1458 FILLER_14_489
*1459 FILLER_14_512
*1460 FILLER_14_53
*1461 FILLER_14_65
*1462 FILLER_14_77
*1463 FILLER_14_83
*1464 FILLER_14_85
*1465 FILLER_14_97
*1466 FILLER_15_105
*1467 FILLER_15_111
*1468 FILLER_15_113
*1469 FILLER_15_125
*1470 FILLER_15_137
*1471 FILLER_15_149
*1472 FILLER_15_15
*1473 FILLER_15_161
*1474 FILLER_15_167
*1475 FILLER_15_169
*1476 FILLER_15_181
*1477 FILLER_15_193
*1478 FILLER_15_205
*1479 FILLER_15_217
*1480 FILLER_15_223
*1481 FILLER_15_225
*1482 FILLER_15_237
*1483 FILLER_15_249
*1484 FILLER_15_261
*1485 FILLER_15_27
*1486 FILLER_15_273
*1487 FILLER_15_279
*1488 FILLER_15_281
*1489 FILLER_15_293
*1490 FILLER_15_3
*1491 FILLER_15_305
*1492 FILLER_15_317
*1493 FILLER_15_329
*1494 FILLER_15_335
*1495 FILLER_15_337
*1496 FILLER_15_349
*1497 FILLER_15_361
*1498 FILLER_15_373
*1499 FILLER_15_385
*1500 FILLER_15_39
*1501 FILLER_15_391
*1502 FILLER_15_393
*1503 FILLER_15_405
*1504 FILLER_15_417
*1505 FILLER_15_429
*1506 FILLER_15_441
*1507 FILLER_15_447
*1508 FILLER_15_449
*1509 FILLER_15_461
*1510 FILLER_15_473
*1511 FILLER_15_485
*1512 FILLER_15_500
*1513 FILLER_15_508
*1514 FILLER_15_51
*1515 FILLER_15_55
*1516 FILLER_15_57
*1517 FILLER_15_69
*1518 FILLER_15_81
*1519 FILLER_15_93
*1520 FILLER_16_109
*1521 FILLER_16_121
*1522 FILLER_16_133
*1523 FILLER_16_139
*1524 FILLER_16_141
*1525 FILLER_16_15
*1526 FILLER_16_153
*1527 FILLER_16_165
*1528 FILLER_16_177
*1529 FILLER_16_189
*1530 FILLER_16_195
*1531 FILLER_16_197
*1532 FILLER_16_209
*1533 FILLER_16_221
*1534 FILLER_16_233
*1535 FILLER_16_245
*1536 FILLER_16_251
*1537 FILLER_16_253
*1538 FILLER_16_265
*1539 FILLER_16_27
*1540 FILLER_16_277
*1541 FILLER_16_289
*1542 FILLER_16_29
*1543 FILLER_16_3
*1544 FILLER_16_301
*1545 FILLER_16_307
*1546 FILLER_16_309
*1547 FILLER_16_321
*1548 FILLER_16_333
*1549 FILLER_16_345
*1550 FILLER_16_357
*1551 FILLER_16_363
*1552 FILLER_16_365
*1553 FILLER_16_377
*1554 FILLER_16_389
*1555 FILLER_16_401
*1556 FILLER_16_41
*1557 FILLER_16_413
*1558 FILLER_16_419
*1559 FILLER_16_421
*1560 FILLER_16_433
*1561 FILLER_16_445
*1562 FILLER_16_457
*1563 FILLER_16_469
*1564 FILLER_16_475
*1565 FILLER_16_477
*1566 FILLER_16_489
*1567 FILLER_16_512
*1568 FILLER_16_53
*1569 FILLER_16_65
*1570 FILLER_16_77
*1571 FILLER_16_83
*1572 FILLER_16_85
*1573 FILLER_16_97