*SPEF "ieee 1481-1999"
*DESIGN "wrapped_instrumented_adder_ripple"
*DATE "11:11:11 Fri 11 11, 1111"
*VENDOR "OpenRCX"
*PROGRAM "Parallel Extraction"
*VERSION "1.0"
*DESIGN_FLOW "NAME_SCOPE LOCAL" "PIN_CAP NONE"
*DIVIDER /
*DELIMITER :
*BUS_DELIMITER []
*T_UNIT 1 NS
*C_UNIT 1 PF
*R_UNIT 1 OHM
*L_UNIT 1 HENRY

*NAME_MAP
*1 active
*2 la1_data_in[0]
*3 la1_data_in[10]
*4 la1_data_in[11]
*5 la1_data_in[12]
*6 la1_data_in[13]
*7 la1_data_in[14]
*8 la1_data_in[15]
*9 la1_data_in[16]
*10 la1_data_in[17]
*11 la1_data_in[18]
*12 la1_data_in[19]
*13 la1_data_in[1]
*14 la1_data_in[20]
*15 la1_data_in[21]
*16 la1_data_in[22]
*17 la1_data_in[23]
*18 la1_data_in[24]
*19 la1_data_in[25]
*20 la1_data_in[26]
*21 la1_data_in[27]
*22 la1_data_in[28]
*23 la1_data_in[29]
*24 la1_data_in[2]
*25 la1_data_in[30]
*26 la1_data_in[31]
*27 la1_data_in[3]
*28 la1_data_in[4]
*29 la1_data_in[5]
*30 la1_data_in[6]
*31 la1_data_in[7]
*32 la1_data_in[8]
*33 la1_data_in[9]
*34 la1_data_out[0]
*35 la1_data_out[10]
*36 la1_data_out[11]
*37 la1_data_out[12]
*38 la1_data_out[13]
*39 la1_data_out[14]
*40 la1_data_out[15]
*41 la1_data_out[16]
*42 la1_data_out[17]
*43 la1_data_out[18]
*44 la1_data_out[19]
*45 la1_data_out[1]
*46 la1_data_out[20]
*47 la1_data_out[21]
*48 la1_data_out[22]
*49 la1_data_out[23]
*50 la1_data_out[24]
*51 la1_data_out[25]
*52 la1_data_out[26]
*53 la1_data_out[27]
*54 la1_data_out[28]
*55 la1_data_out[29]
*56 la1_data_out[2]
*57 la1_data_out[30]
*58 la1_data_out[31]
*59 la1_data_out[3]
*60 la1_data_out[4]
*61 la1_data_out[5]
*62 la1_data_out[6]
*63 la1_data_out[7]
*64 la1_data_out[8]
*65 la1_data_out[9]
*66 la1_oenb[0]
*67 la1_oenb[10]
*68 la1_oenb[11]
*69 la1_oenb[12]
*70 la1_oenb[13]
*71 la1_oenb[14]
*72 la1_oenb[15]
*73 la1_oenb[16]
*74 la1_oenb[17]
*75 la1_oenb[18]
*76 la1_oenb[19]
*77 la1_oenb[1]
*78 la1_oenb[20]
*79 la1_oenb[21]
*80 la1_oenb[22]
*81 la1_oenb[23]
*82 la1_oenb[24]
*83 la1_oenb[25]
*84 la1_oenb[26]
*85 la1_oenb[27]
*86 la1_oenb[28]
*87 la1_oenb[29]
*88 la1_oenb[2]
*89 la1_oenb[30]
*90 la1_oenb[31]
*91 la1_oenb[3]
*92 la1_oenb[4]
*93 la1_oenb[5]
*94 la1_oenb[6]
*95 la1_oenb[7]
*96 la1_oenb[8]
*97 la1_oenb[9]
*98 la2_data_in[0]
*99 la2_data_in[10]
*100 la2_data_in[11]
*101 la2_data_in[12]
*102 la2_data_in[13]
*103 la2_data_in[14]
*104 la2_data_in[15]
*105 la2_data_in[16]
*106 la2_data_in[17]
*107 la2_data_in[18]
*108 la2_data_in[19]
*109 la2_data_in[1]
*110 la2_data_in[20]
*111 la2_data_in[21]
*112 la2_data_in[22]
*113 la2_data_in[23]
*114 la2_data_in[24]
*115 la2_data_in[25]
*116 la2_data_in[26]
*117 la2_data_in[27]
*118 la2_data_in[28]
*119 la2_data_in[29]
*120 la2_data_in[2]
*121 la2_data_in[30]
*122 la2_data_in[31]
*123 la2_data_in[3]
*124 la2_data_in[4]
*125 la2_data_in[5]
*126 la2_data_in[6]
*127 la2_data_in[7]
*128 la2_data_in[8]
*129 la2_data_in[9]
*130 la2_data_out[0]
*131 la2_data_out[10]
*132 la2_data_out[11]
*133 la2_data_out[12]
*134 la2_data_out[13]
*135 la2_data_out[14]
*136 la2_data_out[15]
*137 la2_data_out[16]
*138 la2_data_out[17]
*139 la2_data_out[18]
*140 la2_data_out[19]
*141 la2_data_out[1]
*142 la2_data_out[20]
*143 la2_data_out[21]
*144 la2_data_out[22]
*145 la2_data_out[23]
*146 la2_data_out[24]
*147 la2_data_out[25]
*148 la2_data_out[26]
*149 la2_data_out[27]
*150 la2_data_out[28]
*151 la2_data_out[29]
*152 la2_data_out[2]
*153 la2_data_out[30]
*154 la2_data_out[31]
*155 la2_data_out[3]
*156 la2_data_out[4]
*157 la2_data_out[5]
*158 la2_data_out[6]
*159 la2_data_out[7]
*160 la2_data_out[8]
*161 la2_data_out[9]
*162 la2_oenb[0]
*163 la2_oenb[10]
*164 la2_oenb[11]
*165 la2_oenb[12]
*166 la2_oenb[13]
*167 la2_oenb[14]
*168 la2_oenb[15]
*169 la2_oenb[16]
*170 la2_oenb[17]
*171 la2_oenb[18]
*172 la2_oenb[19]
*173 la2_oenb[1]
*174 la2_oenb[20]
*175 la2_oenb[21]
*176 la2_oenb[22]
*177 la2_oenb[23]
*178 la2_oenb[24]
*179 la2_oenb[25]
*180 la2_oenb[26]
*181 la2_oenb[27]
*182 la2_oenb[28]
*183 la2_oenb[29]
*184 la2_oenb[2]
*185 la2_oenb[30]
*186 la2_oenb[31]
*187 la2_oenb[3]
*188 la2_oenb[4]
*189 la2_oenb[5]
*190 la2_oenb[6]
*191 la2_oenb[7]
*192 la2_oenb[8]
*193 la2_oenb[9]
*194 la3_data_in[0]
*195 la3_data_in[10]
*196 la3_data_in[11]
*197 la3_data_in[12]
*198 la3_data_in[13]
*199 la3_data_in[14]
*200 la3_data_in[15]
*201 la3_data_in[16]
*202 la3_data_in[17]
*203 la3_data_in[18]
*204 la3_data_in[19]
*205 la3_data_in[1]
*206 la3_data_in[20]
*207 la3_data_in[21]
*208 la3_data_in[22]
*209 la3_data_in[23]
*210 la3_data_in[24]
*211 la3_data_in[25]
*212 la3_data_in[26]
*213 la3_data_in[27]
*214 la3_data_in[28]
*215 la3_data_in[29]
*216 la3_data_in[2]
*217 la3_data_in[30]
*218 la3_data_in[31]
*219 la3_data_in[3]
*220 la3_data_in[4]
*221 la3_data_in[5]
*222 la3_data_in[6]
*223 la3_data_in[7]
*224 la3_data_in[8]
*225 la3_data_in[9]
*226 la3_data_out[0]
*227 la3_data_out[10]
*228 la3_data_out[11]
*229 la3_data_out[12]
*230 la3_data_out[13]
*231 la3_data_out[14]
*232 la3_data_out[15]
*233 la3_data_out[16]
*234 la3_data_out[17]
*235 la3_data_out[18]
*236 la3_data_out[19]
*237 la3_data_out[1]
*238 la3_data_out[20]
*239 la3_data_out[21]
*240 la3_data_out[22]
*241 la3_data_out[23]
*242 la3_data_out[24]
*243 la3_data_out[25]
*244 la3_data_out[26]
*245 la3_data_out[27]
*246 la3_data_out[28]
*247 la3_data_out[29]
*248 la3_data_out[2]
*249 la3_data_out[30]
*250 la3_data_out[31]
*251 la3_data_out[3]
*252 la3_data_out[4]
*253 la3_data_out[5]
*254 la3_data_out[6]
*255 la3_data_out[7]
*256 la3_data_out[8]
*257 la3_data_out[9]
*258 la3_oenb[0]
*259 la3_oenb[10]
*260 la3_oenb[11]
*261 la3_oenb[12]
*262 la3_oenb[13]
*263 la3_oenb[14]
*264 la3_oenb[15]
*265 la3_oenb[16]
*266 la3_oenb[17]
*267 la3_oenb[18]
*268 la3_oenb[19]
*269 la3_oenb[1]
*270 la3_oenb[20]
*271 la3_oenb[21]
*272 la3_oenb[22]
*273 la3_oenb[23]
*274 la3_oenb[24]
*275 la3_oenb[25]
*276 la3_oenb[26]
*277 la3_oenb[27]
*278 la3_oenb[28]
*279 la3_oenb[29]
*280 la3_oenb[2]
*281 la3_oenb[30]
*282 la3_oenb[31]
*283 la3_oenb[3]
*284 la3_oenb[4]
*285 la3_oenb[5]
*286 la3_oenb[6]
*287 la3_oenb[7]
*288 la3_oenb[8]
*289 la3_oenb[9]
*292 wb_clk_i
*293 _0000_
*294 _0001_
*295 _0002_
*296 _0003_
*297 _0004_
*298 _0005_
*299 _0006_
*300 _0007_
*301 _0008_
*302 _0009_
*303 _0010_
*304 _0011_
*305 _0012_
*306 _0013_
*307 _0014_
*308 _0015_
*309 _0016_
*310 _0017_
*311 _0018_
*312 _0019_
*313 _0020_
*314 _0021_
*315 _0022_
*316 _0023_
*317 _0024_
*318 _0025_
*319 _0026_
*320 _0027_
*321 _0028_
*322 _0029_
*323 _0030_
*324 _0031_
*325 _0032_
*326 _0033_
*327 _0034_
*328 _0035_
*329 _0036_
*330 _0037_
*331 _0038_
*332 _0039_
*333 _0040_
*334 _0041_
*335 _0042_
*336 _0043_
*337 _0044_
*338 _0045_
*339 _0046_
*340 _0047_
*341 _0048_
*342 _0049_
*343 _0050_
*344 _0051_
*345 _0052_
*346 _0053_
*347 _0054_
*348 _0055_
*349 _0056_
*350 _0057_
*351 _0058_
*352 _0059_
*353 _0060_
*354 _0061_
*355 _0062_
*356 _0063_
*357 _0064_
*358 _0065_
*359 _0066_
*360 _0067_
*361 _0068_
*362 _0069_
*363 _0070_
*364 _0071_
*365 _0072_
*366 _0073_
*367 _0074_
*368 _0075_
*369 _0076_
*370 _0077_
*371 _0078_
*372 _0079_
*373 _0080_
*374 _0081_
*375 _0082_
*376 _0083_
*377 _0084_
*378 _0085_
*379 _0086_
*380 _0087_
*381 _0088_
*382 _0089_
*383 _0090_
*384 _0091_
*385 _0092_
*386 _0093_
*387 _0094_
*388 _0095_
*389 _0096_
*390 _0097_
*391 _0098_
*392 _0099_
*393 _0100_
*394 _0101_
*395 _0102_
*396 _0103_
*397 _0104_
*398 _0105_
*399 _0106_
*400 _0107_
*401 _0108_
*402 _0109_
*403 _0110_
*404 _0111_
*405 _0112_
*406 _0113_
*407 _0114_
*408 _0115_
*409 _0116_
*410 _0117_
*411 _0118_
*412 _0119_
*413 _0120_
*414 _0121_
*415 _0122_
*416 _0123_
*417 _0124_
*418 _0125_
*419 _0126_
*420 _0127_
*421 _0128_
*422 _0129_
*423 _0130_
*424 _0131_
*425 _0132_
*426 _0133_
*427 _0134_
*428 _0135_
*429 _0136_
*430 _0137_
*431 _0138_
*432 _0139_
*433 _0140_
*434 _0141_
*435 _0142_
*436 _0143_
*437 _0144_
*438 _0145_
*439 _0146_
*440 _0147_
*441 _0148_
*442 _0149_
*443 _0150_
*444 _0151_
*445 _0152_
*446 _0153_
*447 _0154_
*448 _0155_
*449 _0156_
*450 _0157_
*451 _0158_
*452 _0159_
*453 _0160_
*454 _0161_
*455 _0162_
*456 _0163_
*457 _0164_
*458 _0165_
*459 _0166_
*460 _0167_
*461 _0168_
*462 _0169_
*463 _0170_
*464 _0171_
*465 _0172_
*466 _0173_
*467 _0174_
*468 _0175_
*469 _0176_
*470 _0177_
*471 _0178_
*472 _0179_
*473 _0180_
*474 _0181_
*475 _0182_
*476 _0183_
*477 _0184_
*478 _0185_
*479 _0186_
*480 _0187_
*481 _0188_
*482 _0189_
*483 _0190_
*484 _0191_
*485 _0192_
*486 _0193_
*487 _0194_
*488 _0195_
*489 _0196_
*490 _0197_
*491 _0198_
*492 _0199_
*493 _0200_
*494 _0201_
*495 _0202_
*496 _0203_
*497 _0204_
*498 _0205_
*499 _0206_
*500 _0207_
*501 _0208_
*502 _0209_
*503 _0210_
*504 _0211_
*505 _0212_
*506 _0213_
*507 _0214_
*508 _0215_
*509 _0216_
*510 _0217_
*511 _0218_
*512 _0219_
*513 _0220_
*514 _0221_
*515 _0222_
*516 _0223_
*517 _0224_
*518 _0225_
*519 _0226_
*520 _0227_
*521 _0228_
*522 _0229_
*523 _0230_
*524 _0231_
*525 _0232_
*526 _0233_
*527 _0234_
*528 _0235_
*529 _0236_
*530 _0237_
*531 _0238_
*532 _0239_
*533 _0240_
*534 _0241_
*535 _0242_
*536 _0243_
*537 _0244_
*538 _0245_
*539 _0246_
*540 _0247_
*541 _0248_
*542 _0249_
*543 _0250_
*544 _0251_
*545 _0252_
*546 _0253_
*547 _0254_
*548 _0255_
*549 _0256_
*550 _0257_
*551 _0258_
*552 _0259_
*553 _0260_
*554 _0261_
*555 _0262_
*556 _0263_
*557 _0264_
*558 _0265_
*559 _0266_
*560 _0267_
*561 _0268_
*562 _0269_
*563 _0270_
*564 _0271_
*565 _0272_
*566 _0273_
*567 _0274_
*568 _0275_
*569 _0276_
*570 _0277_
*571 _0278_
*572 _0279_
*573 _0280_
*574 _0281_
*575 _0282_
*576 _0283_
*577 _0284_
*578 _0285_
*579 _0286_
*580 _0287_
*581 _0288_
*582 _0289_
*583 _0290_
*584 _0291_
*585 _0292_
*586 _0293_
*587 _0294_
*588 _0295_
*589 _0296_
*590 _0297_
*591 _0298_
*592 _0299_
*593 _0300_
*594 _0301_
*595 _0302_
*596 _0303_
*597 _0304_
*598 _0305_
*599 _0306_
*600 _0307_
*601 _0308_
*602 _0309_
*603 _0310_
*604 _0311_
*605 _0312_
*606 _0313_
*607 _0314_
*608 _0315_
*609 _0316_
*610 _0317_
*611 _0318_
*612 _0319_
*613 _0320_
*614 _0321_
*615 _0322_
*616 _0323_
*617 _0324_
*618 _0325_
*619 _0326_
*620 _0327_
*621 _0328_
*622 _0329_
*623 _0330_
*624 _0331_
*625 _0332_
*626 _0333_
*627 _0334_
*628 _0335_
*629 _0336_
*630 _0337_
*631 _0338_
*632 _0339_
*633 _0340_
*634 _0341_
*635 _0342_
*636 _0343_
*637 _0344_
*638 _0345_
*639 _0346_
*640 _0347_
*641 _0348_
*642 _0349_
*643 _0350_
*644 _0351_
*645 _0352_
*646 _0353_
*647 _0354_
*648 _0355_
*649 _0356_
*650 _0357_
*651 _0358_
*652 _0359_
*653 _0360_
*654 _0361_
*655 _0362_
*656 _0363_
*657 _0364_
*658 _0365_
*659 _0366_
*660 _0367_
*661 _0368_
*662 _0369_
*663 _0370_
*664 _0371_
*665 _0372_
*666 _0373_
*667 _0374_
*668 _0375_
*669 _0376_
*670 _0377_
*671 _0378_
*672 _0379_
*673 _0380_
*674 _0381_
*675 _0382_
*676 _0383_
*677 _0384_
*678 _0385_
*679 _0386_
*680 _0387_
*681 _0388_
*682 _0389_
*683 _0390_
*684 _0391_
*685 _0392_
*686 _0393_
*687 _0394_
*688 _0395_
*689 _0396_
*690 _0397_
*691 _0398_
*692 _0399_
*693 _0400_
*694 _0401_
*695 _0402_
*696 _0403_
*697 _0404_
*698 _0405_
*699 _0406_
*700 _0407_
*701 _0408_
*702 _0409_
*703 _0410_
*704 _0411_
*705 _0412_
*706 _0413_
*707 _0414_
*708 _0415_
*709 _0416_
*710 _0417_
*711 _0418_
*712 _0419_
*713 _0420_
*714 _0421_
*715 _0422_
*716 _0423_
*717 _0424_
*718 _0425_
*719 _0426_
*720 _0427_
*721 _0428_
*722 _0429_
*723 _0430_
*724 _0431_
*725 _0432_
*726 _0433_
*727 _0434_
*728 _0435_
*729 _0436_
*730 _0437_
*731 _0438_
*732 _0439_
*733 _0440_
*734 _0441_
*735 _0442_
*736 _0443_
*737 _0444_
*738 _0445_
*739 _0446_
*740 _0447_
*741 _0448_
*742 _0449_
*743 _0450_
*744 _0451_
*745 _0452_
*746 _0453_
*747 _0454_
*748 _0455_
*749 _0456_
*750 _0457_
*751 _0458_
*752 _0459_
*753 _0460_
*754 _0461_
*755 _0462_
*756 _0463_
*757 _0464_
*758 _0465_
*759 _0466_
*760 _0467_
*761 _0468_
*762 _0469_
*763 _0470_
*764 _0471_
*765 _0472_
*766 _0473_
*767 _0474_
*768 _0475_
*769 _0476_
*770 _0477_
*771 _0478_
*772 _0479_
*773 _0480_
*774 _0481_
*775 _0482_
*776 _0483_
*777 _0484_
*778 _0485_
*779 _0486_
*780 _0487_
*781 _0488_
*782 _0489_
*783 _0490_
*784 _0491_
*785 _0492_
*786 _0493_
*787 _0494_
*788 _0495_
*789 _0496_
*790 _0497_
*791 _0498_
*792 _0499_
*793 _0500_
*794 _0501_
*795 _0502_
*796 _0503_
*797 _0504_
*798 _0505_
*799 _0506_
*800 _0507_
*801 _0508_
*802 _0509_
*803 _0510_
*804 _0511_
*805 _0512_
*806 _0513_
*807 _0514_
*808 _0515_
*809 _0516_
*810 _0517_
*811 _0518_
*812 _0519_
*813 _0520_
*814 _0521_
*815 _0522_
*816 _0523_
*817 _0524_
*818 _0525_
*819 _0526_
*820 _0527_
*821 _0528_
*822 _0529_
*823 _0530_
*824 _0531_
*825 _0532_
*826 _0533_
*827 _0534_
*828 _0535_
*829 _0536_
*830 _0537_
*831 _0538_
*832 _0539_
*833 _0540_
*834 _0541_
*835 _0542_
*836 _0543_
*837 _0544_
*838 _0545_
*839 _0546_
*840 _0547_
*841 _0548_
*842 _0549_
*843 _0550_
*844 _0551_
*845 _0552_
*846 _0553_
*847 _0554_
*848 _0555_
*849 _0556_
*850 _0557_
*851 _0558_
*852 _0559_
*853 _0560_
*854 _0561_
*855 _0562_
*856 _0563_
*857 _0564_
*858 _0565_
*859 _0566_
*860 _0567_
*861 _0568_
*862 _0569_
*863 _0570_
*864 clknet_0_wb_clk_i
*865 clknet_1_0_0_wb_clk_i
*866 clknet_1_1_0_wb_clk_i
*867 clknet_2_0_0_wb_clk_i
*868 clknet_2_1_0_wb_clk_i
*869 clknet_2_2_0_wb_clk_i
*870 clknet_2_3_0_wb_clk_i
*871 instrumented_adder\.bypass1\.A
*872 instrumented_adder\.bypass1\.Z
*873 instrumented_adder\.bypass2\.TE_B
*874 instrumented_adder\.bypass2\.Z
*875 instrumented_adder\.chain_in
*876 instrumented_adder\.chain_out
*877 instrumented_adder\.control1\.Z
*878 instrumented_adder\.control2\.A
*879 instrumented_adder\.control2\.TE_B
*880 instrumented_adder\.control_inverters\[0\]\.Y
*881 instrumented_adder\.control_inverters\[1\]\.Y
*882 instrumented_adder\.control_inverters\[2\]\.Y
*883 instrumented_adder\.done
*884 instrumented_adder\.f0
*885 instrumented_adder\.integration_counter\[0\]
*886 instrumented_adder\.integration_counter\[10\]
*887 instrumented_adder\.integration_counter\[11\]
*888 instrumented_adder\.integration_counter\[12\]
*889 instrumented_adder\.integration_counter\[13\]
*890 instrumented_adder\.integration_counter\[14\]
*891 instrumented_adder\.integration_counter\[15\]
*892 instrumented_adder\.integration_counter\[16\]
*893 instrumented_adder\.integration_counter\[17\]
*894 instrumented_adder\.integration_counter\[18\]
*895 instrumented_adder\.integration_counter\[19\]
*896 instrumented_adder\.integration_counter\[1\]
*897 instrumented_adder\.integration_counter\[20\]
*898 instrumented_adder\.integration_counter\[21\]
*899 instrumented_adder\.integration_counter\[22\]
*900 instrumented_adder\.integration_counter\[23\]
*901 instrumented_adder\.integration_counter\[24\]
*902 instrumented_adder\.integration_counter\[25\]
*903 instrumented_adder\.integration_counter\[26\]
*904 instrumented_adder\.integration_counter\[27\]
*905 instrumented_adder\.integration_counter\[28\]
*906 instrumented_adder\.integration_counter\[29\]
*907 instrumented_adder\.integration_counter\[2\]
*908 instrumented_adder\.integration_counter\[30\]
*909 instrumented_adder\.integration_counter\[31\]
*910 instrumented_adder\.integration_counter\[3\]
*911 instrumented_adder\.integration_counter\[4\]
*912 instrumented_adder\.integration_counter\[5\]
*913 instrumented_adder\.integration_counter\[6\]
*914 instrumented_adder\.integration_counter\[7\]
*915 instrumented_adder\.integration_counter\[8\]
*916 instrumented_adder\.integration_counter\[9\]
*917 instrumented_adder\.inverters\[0\]\.Y
*918 instrumented_adder\.inverters\[10\]\.A
*919 instrumented_adder\.inverters\[10\]\.Y
*920 instrumented_adder\.inverters\[11\]\.Y
*921 instrumented_adder\.inverters\[12\]\.Y
*922 instrumented_adder\.inverters\[13\]\.Y
*923 instrumented_adder\.inverters\[14\]\.Y
*924 instrumented_adder\.inverters\[15\]\.Y
*925 instrumented_adder\.inverters\[16\]\.Y
*926 instrumented_adder\.inverters\[17\]\.Y
*927 instrumented_adder\.inverters\[18\]\.Y
*928 instrumented_adder\.inverters\[19\]\.Y
*929 instrumented_adder\.inverters\[1\]\.Y
*930 instrumented_adder\.inverters\[20\]\.Y
*931 instrumented_adder\.inverters\[21\]\.Y
*932 instrumented_adder\.inverters\[22\]\.Y
*933 instrumented_adder\.inverters\[23\]\.Y
*934 instrumented_adder\.inverters\[24\]\.Y
*935 instrumented_adder\.inverters\[25\]\.Y
*936 instrumented_adder\.inverters\[26\]\.Y
*937 instrumented_adder\.inverters\[27\]\.Y
*938 instrumented_adder\.inverters\[28\]\.Y
*939 instrumented_adder\.inverters\[29\]\.Y
*940 instrumented_adder\.inverters\[2\]\.Y
*941 instrumented_adder\.inverters\[3\]\.Y
*942 instrumented_adder\.inverters\[4\]\.Y
*943 instrumented_adder\.inverters\[5\]\.Y
*944 instrumented_adder\.inverters\[6\]\.Y
*945 instrumented_adder\.inverters\[7\]\.Y
*946 instrumented_adder\.inverters\[8\]\.Y
*947 instrumented_adder\.r2
*948 instrumented_adder\.ring_osc_counter\[0\]
*949 instrumented_adder\.ring_osc_counter\[10\]
*950 instrumented_adder\.ring_osc_counter\[11\]
*951 instrumented_adder\.ring_osc_counter\[12\]
*952 instrumented_adder\.ring_osc_counter\[13\]
*953 instrumented_adder\.ring_osc_counter\[14\]
*954 instrumented_adder\.ring_osc_counter\[15\]
*955 instrumented_adder\.ring_osc_counter\[16\]
*956 instrumented_adder\.ring_osc_counter\[17\]
*957 instrumented_adder\.ring_osc_counter\[18\]
*958 instrumented_adder\.ring_osc_counter\[19\]
*959 instrumented_adder\.ring_osc_counter\[1\]
*960 instrumented_adder\.ring_osc_counter\[20\]
*961 instrumented_adder\.ring_osc_counter\[21\]
*962 instrumented_adder\.ring_osc_counter\[22\]
*963 instrumented_adder\.ring_osc_counter\[23\]
*964 instrumented_adder\.ring_osc_counter\[24\]
*965 instrumented_adder\.ring_osc_counter\[25\]
*966 instrumented_adder\.ring_osc_counter\[26\]
*967 instrumented_adder\.ring_osc_counter\[27\]
*968 instrumented_adder\.ring_osc_counter\[28\]
*969 instrumented_adder\.ring_osc_counter\[29\]
*970 instrumented_adder\.ring_osc_counter\[2\]
*971 instrumented_adder\.ring_osc_counter\[30\]
*972 instrumented_adder\.ring_osc_counter\[31\]
*973 instrumented_adder\.ring_osc_counter\[3\]
*974 instrumented_adder\.ring_osc_counter\[4\]
*975 instrumented_adder\.ring_osc_counter\[5\]
*976 instrumented_adder\.ring_osc_counter\[6\]
*977 instrumented_adder\.ring_osc_counter\[7\]
*978 instrumented_adder\.ring_osc_counter\[8\]
*979 instrumented_adder\.ring_osc_counter\[9\]
*980 instrumented_adder\.ripple_carry\.n3_tree_0
*981 instrumented_adder\.tristate_ext_inputs\[0\]\.TE_B
*982 instrumented_adder\.tristate_ext_inputs\[0\]\.Z
*983 instrumented_adder\.tristate_ext_inputs\[1\]\.TE_B
*984 instrumented_adder\.tristate_ext_inputs\[1\]\.Z
*985 instrumented_adder\.tristate_ext_inputs\[2\]\.TE_B
*986 instrumented_adder\.tristate_ext_inputs\[2\]\.Z
*987 instrumented_adder\.tristate_ext_inputs\[3\]\.TE_B
*988 instrumented_adder\.tristate_ext_inputs\[3\]\.Z
*989 instrumented_adder\.tristate_ext_inputs\[4\]\.TE_B
*990 instrumented_adder\.tristate_ext_inputs\[4\]\.Z
*991 instrumented_adder\.tristate_ext_inputs\[5\]\.TE_B
*992 instrumented_adder\.tristate_ext_inputs\[5\]\.Z
*993 instrumented_adder\.tristate_ext_inputs\[6\]\.TE_B
*994 instrumented_adder\.tristate_ext_inputs\[6\]\.Z
*995 instrumented_adder\.tristate_ext_inputs\[7\]\.TE_B
*996 instrumented_adder\.tristate_ext_inputs\[7\]\.Z
*997 instrumented_adder\.tristate_sum_outputs\[1\]\.A
*998 instrumented_adder\.tristate_sum_outputs\[1\]\.TE_B
*999 instrumented_adder\.tristate_sum_outputs\[2\]\.A
*1000 instrumented_adder\.tristate_sum_outputs\[2\]\.TE_B
*1001 instrumented_adder\.tristate_sum_outputs\[3\]\.A
*1002 instrumented_adder\.tristate_sum_outputs\[3\]\.TE_B
*1003 instrumented_adder\.tristate_sum_outputs\[4\]\.A
*1004 instrumented_adder\.tristate_sum_outputs\[4\]\.TE_B
*1005 instrumented_adder\.tristate_sum_outputs\[5\]\.A
*1006 instrumented_adder\.tristate_sum_outputs\[5\]\.TE_B
*1007 instrumented_adder\.tristate_sum_outputs\[6\]\.A
*1008 instrumented_adder\.tristate_sum_outputs\[6\]\.TE_B
*1009 instrumented_adder\.tristate_sum_outputs\[7\]\.A
*1010 instrumented_adder\.tristate_sum_outputs\[7\]\.TE_B
*1011 net1
*1012 net10
*1013 net100
*1014 net101
*1015 net102
*1016 net103
*1017 net104
*1018 net105
*1019 net106
*1020 net107
*1021 net108
*1022 net109
*1023 net11
*1024 net110
*1025 net111
*1026 net112
*1027 net113
*1028 net114
*1029 net115
*1030 net116
*1031 net117
*1032 net118
*1033 net119
*1034 net12
*1035 net120
*1036 net121
*1037 net122
*1038 net123
*1039 net124
*1040 net125
*1041 net126
*1042 net127
*1043 net128
*1044 net129
*1045 net13
*1046 net130
*1047 net131
*1048 net132
*1049 net133
*1050 net134
*1051 net135
*1052 net14
*1053 net15
*1054 net16
*1055 net17
*1056 net18
*1057 net19
*1058 net2
*1059 net20
*1060 net21
*1061 net22
*1062 net23
*1063 net24
*1064 net25
*1065 net26
*1066 net27
*1067 net28
*1068 net29
*1069 net3
*1070 net30
*1071 net31
*1072 net32
*1073 net33
*1074 net34
*1075 net35
*1076 net36
*1077 net37
*1078 net38
*1079 net39
*1080 net4
*1081 net40
*1082 net41
*1083 net42
*1084 net43
*1085 net44
*1086 net45
*1087 net46
*1088 net47
*1089 net48
*1090 net49
*1091 net5
*1092 net50
*1093 net51
*1094 net52
*1095 net53
*1096 net54
*1097 net55
*1098 net56
*1099 net57
*1100 net58
*1101 net59
*1102 net6
*1103 net60
*1104 net61
*1105 net62
*1106 net63
*1107 net64
*1108 net65
*1109 net66
*1110 net67
*1111 net68
*1112 net69
*1113 net7
*1114 net70
*1115 net71
*1116 net72
*1117 net73
*1118 net74
*1119 net75
*1120 net76
*1121 net77
*1122 net78
*1123 net79
*1124 net8
*1125 net80
*1126 net81
*1127 net82
*1128 net83
*1129 net84
*1130 net85
*1131 net86
*1132 net87
*1133 net88
*1134 net89
*1135 net9
*1136 net90
*1137 net91
*1138 net92
*1139 net93
*1140 net94
*1141 net95
*1142 net96
*1143 net97
*1144 net98
*1145 net99
*1146 ANTENNA_0
*1147 ANTENNA_1
*1148 ANTENNA_10
*1149 ANTENNA_2
*1150 ANTENNA_3
*1151 ANTENNA_4
*1152 ANTENNA_5
*1153 ANTENNA_6
*1154 ANTENNA_7
*1155 ANTENNA_8
*1156 ANTENNA_9
*1157 FILLER_0_107
*1158 FILLER_0_111
*1159 FILLER_0_113
*1160 FILLER_0_125
*1161 FILLER_0_137
*1162 FILLER_0_141
*1163 FILLER_0_153
*1164 FILLER_0_161
*1165 FILLER_0_167
*1166 FILLER_0_173
*1167 FILLER_0_185
*1168 FILLER_0_193
*1169 FILLER_0_200
*1170 FILLER_0_207
*1171 FILLER_0_217
*1172 FILLER_0_223
*1173 FILLER_0_225
*1174 FILLER_0_233
*1175 FILLER_0_24
*1176 FILLER_0_240
*1177 FILLER_0_247
*1178 FILLER_0_251
*1179 FILLER_0_253
*1180 FILLER_0_261
*1181 FILLER_0_273
*1182 FILLER_0_279
*1183 FILLER_0_29
*1184 FILLER_0_291
*1185 FILLER_0_301
*1186 FILLER_0_307
*1187 FILLER_0_309
*1188 FILLER_0_314
*1189 FILLER_0_326
*1190 FILLER_0_334
*1191 FILLER_0_337
*1192 FILLER_0_349
*1193 FILLER_0_361
*1194 FILLER_0_365
*1195 FILLER_0_373
*1196 FILLER_0_377
*1197 FILLER_0_38
*1198 FILLER_0_385
*1199 FILLER_0_391
*1200 FILLER_0_393
*1201 FILLER_0_401
*1202 FILLER_0_406
*1203 FILLER_0_412
*1204 FILLER_0_416
*1205 FILLER_0_421
*1206 FILLER_0_429
*1207 FILLER_0_437
*1208 FILLER_0_444
*1209 FILLER_0_455
*1210 FILLER_0_461
*1211 FILLER_0_472
*1212 FILLER_0_477
*1213 FILLER_0_486
*1214 FILLER_0_500
*1215 FILLER_0_505
*1216 FILLER_0_512
*1217 FILLER_0_52
*1218 FILLER_0_57
*1219 FILLER_0_80
*1220 FILLER_0_85
*1221 FILLER_0_95
*1222 FILLER_10_109
*1223 FILLER_10_121
*1224 FILLER_10_133
*1225 FILLER_10_139
*1226 FILLER_10_141
*1227 FILLER_10_15
*1228 FILLER_10_153
*1229 FILLER_10_165
*1230 FILLER_10_177
*1231 FILLER_10_189
*1232 FILLER_10_195
*1233 FILLER_10_197
*1234 FILLER_10_209
*1235 FILLER_10_221
*1236 FILLER_10_233
*1237 FILLER_10_245
*1238 FILLER_10_251
*1239 FILLER_10_253
*1240 FILLER_10_265
*1241 FILLER_10_27
*1242 FILLER_10_277
*1243 FILLER_10_289
*1244 FILLER_10_29
*1245 FILLER_10_3
*1246 FILLER_10_301
*1247 FILLER_10_307
*1248 FILLER_10_309
*1249 FILLER_10_321
*1250 FILLER_10_333
*1251 FILLER_10_345
*1252 FILLER_10_357
*1253 FILLER_10_363
*1254 FILLER_10_365
*1255 FILLER_10_377
*1256 FILLER_10_389
*1257 FILLER_10_401
*1258 FILLER_10_41
*1259 FILLER_10_413
*1260 FILLER_10_419
*1261 FILLER_10_421
*1262 FILLER_10_433
*1263 FILLER_10_445
*1264 FILLER_10_457
*1265 FILLER_10_469
*1266 FILLER_10_475
*1267 FILLER_10_477
*1268 FILLER_10_489
*1269 FILLER_10_493
*1270 FILLER_10_510
*1271 FILLER_10_53
*1272 FILLER_10_65
*1273 FILLER_10_77
*1274 FILLER_10_83
*1275 FILLER_10_85
*1276 FILLER_10_97
*1277 FILLER_11_105
*1278 FILLER_11_111
*1279 FILLER_11_113
*1280 FILLER_11_125
*1281 FILLER_11_137
*1282 FILLER_11_149
*1283 FILLER_11_15
*1284 FILLER_11_161
*1285 FILLER_11_167
*1286 FILLER_11_169
*1287 FILLER_11_181
*1288 FILLER_11_193
*1289 FILLER_11_205
*1290 FILLER_11_217
*1291 FILLER_11_223
*1292 FILLER_11_225
*1293 FILLER_11_237
*1294 FILLER_11_249
*1295 FILLER_11_261
*1296 FILLER_11_27
*1297 FILLER_11_273
*1298 FILLER_11_279
*1299 FILLER_11_281
*1300 FILLER_11_293
*1301 FILLER_11_3
*1302 FILLER_11_305
*1303 FILLER_11_317
*1304 FILLER_11_329
*1305 FILLER_11_335
*1306 FILLER_11_337
*1307 FILLER_11_349
*1308 FILLER_11_361
*1309 FILLER_11_373
*1310 FILLER_11_385
*1311 FILLER_11_39
*1312 FILLER_11_391
*1313 FILLER_11_393
*1314 FILLER_11_405
*1315 FILLER_11_417
*1316 FILLER_11_429
*1317 FILLER_11_441
*1318 FILLER_11_447
*1319 FILLER_11_449
*1320 FILLER_11_461
*1321 FILLER_11_473
*1322 FILLER_11_487
*1323 FILLER_11_495
*1324 FILLER_11_503
*1325 FILLER_11_505
*1326 FILLER_11_51
*1327 FILLER_11_513
*1328 FILLER_11_55
*1329 FILLER_11_57
*1330 FILLER_11_69
*1331 FILLER_11_81
*1332 FILLER_11_93
*1333 FILLER_12_109
*1334 FILLER_12_121
*1335 FILLER_12_133
*1336 FILLER_12_139
*1337 FILLER_12_141
*1338 FILLER_12_15
*1339 FILLER_12_153
*1340 FILLER_12_165
*1341 FILLER_12_177
*1342 FILLER_12_189
*1343 FILLER_12_195
*1344 FILLER_12_197
*1345 FILLER_12_209
*1346 FILLER_12_221
*1347 FILLER_12_233
*1348 FILLER_12_245
*1349 FILLER_12_251
*1350 FILLER_12_253
*1351 FILLER_12_265
*1352 FILLER_12_27
*1353 FILLER_12_277
*1354 FILLER_12_289
*1355 FILLER_12_29
*1356 FILLER_12_3
*1357 FILLER_12_301
*1358 FILLER_12_307
*1359 FILLER_12_309
*1360 FILLER_12_321
*1361 FILLER_12_333
*1362 FILLER_12_345
*1363 FILLER_12_357
*1364 FILLER_12_363
*1365 FILLER_12_365
*1366 FILLER_12_377
*1367 FILLER_12_389
*1368 FILLER_12_401
*1369 FILLER_12_41
*1370 FILLER_12_413
*1371 FILLER_12_419
*1372 FILLER_12_421
*1373 FILLER_12_433
*1374 FILLER_12_445
*1375 FILLER_12_457
*1376 FILLER_12_469
*1377 FILLER_12_475
*1378 FILLER_12_477
*1379 FILLER_12_489
*1380 FILLER_12_501
*1381 FILLER_12_507
*1382 FILLER_12_512
*1383 FILLER_12_53
*1384 FILLER_12_65
*1385 FILLER_12_77
*1386 FILLER_12_83
*1387 FILLER_12_85
*1388 FILLER_12_97
*1389 FILLER_13_105
*1390 FILLER_13_111
*1391 FILLER_13_113
*1392 FILLER_13_125
*1393 FILLER_13_137
*1394 FILLER_13_149
*1395 FILLER_13_15
*1396 FILLER_13_161
*1397 FILLER_13_167
*1398 FILLER_13_169
*1399 FILLER_13_181
*1400 FILLER_13_193
*1401 FILLER_13_205
*1402 FILLER_13_217
*1403 FILLER_13_223
*1404 FILLER_13_225
*1405 FILLER_13_237
*1406 FILLER_13_249
*1407 FILLER_13_261
*1408 FILLER_13_27
*1409 FILLER_13_273
*1410 FILLER_13_279
*1411 FILLER_13_281
*1412 FILLER_13_293
*1413 FILLER_13_3
*1414 FILLER_13_305
*1415 FILLER_13_317
*1416 FILLER_13_329
*1417 FILLER_13_335
*1418 FILLER_13_337
*1419 FILLER_13_349
*1420 FILLER_13_361
*1421 FILLER_13_373
*1422 FILLER_13_385
*1423 FILLER_13_39
*1424 FILLER_13_391
*1425 FILLER_13_393
*1426 FILLER_13_405
*1427 FILLER_13_417
*1428 FILLER_13_429
*1429 FILLER_13_441
*1430 FILLER_13_447
*1431 FILLER_13_449
*1432 FILLER_13_461
*1433 FILLER_13_473
*1434 FILLER_13_485
*1435 FILLER_13_500
*1436 FILLER_13_505
*1437 FILLER_13_51
*1438 FILLER_13_512
*1439 FILLER_13_55
*1440 FILLER_13_57
*1441 FILLER_13_69
*1442 FILLER_13_81
*1443 FILLER_13_93
*1444 FILLER_14_109
*1445 FILLER_14_121
*1446 FILLER_14_133
*1447 FILLER_14_139
*1448 FILLER_14_141
*1449 FILLER_14_15
*1450 FILLER_14_153
*1451 FILLER_14_165
*1452 FILLER_14_177
*1453 FILLER_14_189
*1454 FILLER_14_195
*1455 FILLER_14_197
*1456 FILLER_14_209
*1457 FILLER_14_221
*1458 FILLER_14_233
*1459 FILLER_14_245
*1460 FILLER_14_251
*1461 FILLER_14_253
*1462 FILLER_14_265
*1463 FILLER_14_27
*1464 FILLER_14_277
*1465 FILLER_14_289
*1466 FILLER_14_29
*1467 FILLER_14_3
*1468 FILLER_14_301
*1469 FILLER_14_307
*1470 FILLER_14_309
*1471 FILLER_14_321
*1472 FILLER_14_333
*1473 FILLER_14_345
*1474 FILLER_14_357
*1475 FILLER_14_363
*1476 FILLER_14_365
*1477 FILLER_14_377
*1478 FILLER_14_389
*1479 FILLER_14_401
*1480 FILLER_14_41
*1481 FILLER_14_413
*1482 FILLER_14_419
*1483 FILLER_14_421
*1484 FILLER_14_433
*1485 FILLER_14_445
*1486 FILLER_14_457
*1487 FILLER_14_469
*1488 FILLER_14_475
*1489 FILLER_14_477
*1490 FILLER_14_489
*1491 FILLER_14_512
*1492 FILLER_14_53
*1493 FILLER_14_65
*1494 FILLER_14_77
*1495 FILLER_14_83
*1496 FILLER_14_85
*1497 FILLER_14_97
*1498 FILLER_15_105
*1499 FILLER_15_111
*1500 FILLER_15_113
*1501 FILLER_15_125
*1502 FILLER_15_137
*1503 FILLER_15_149
*1504 FILLER_15_15
*1505 FILLER_15_161
*1506 FILLER_15_167
*1507 FILLER_15_169
*1508 FILLER_15_181
*1509 FILLER_15_193
*1510 FILLER_15_205
*1511 FILLER_15_217
*1512 FILLER_15_223
*1513 FILLER_15_225
*1514 FILLER_15_237
*1515 FILLER_15_249
*1516 FILLER_15_261
*1517 FILLER_15_27
*1518 FILLER_15_273
*1519 FILLER_15_279
*1520 FILLER_15_281
*1521 FILLER_15_293
*1522 FILLER_15_3
*1523 FILLER_15_305
*1524 FILLER_15_317
*1525 FILLER_15_329
*1526 FILLER_15_335
*1527 FILLER_15_337
*1528 FILLER_15_349
*1529 FILLER_15_361
*1530 FILLER_15_373
*1531 FILLER_15_385
*1532 FILLER_15_39
*1533 FILLER_15_391
*1534 FILLER_15_393
*1535 FILLER_15_405
*1536 FILLER_15_417
*1537 FILLER_15_429
*1538 FILLER_15_441
*1539 FILLER_15_447
*1540 FILLER_15_449
*1541 FILLER_15_461
*1542 FILLER_15_473
*1543 FILLER_15_485
*1544 FILLER_15_500
*1545 FILLER_15_508
*1546 FILLER_15_51
*1547 FILLER_15_55
*1548 FILLER_15_57
*1549 FILLER_15_69
*1550 FILLER_15_81
*1551 FILLER_15_93
*1552 FILLER_16_109
*1553 FILLER_16_121
*1554 FILLER_16_133
*1555 FILLER_16_139
*1556 FILLER_16_141
*1557 FILLER_16_15
*1558 FILLER_16_153
*1559 FILLER_16_165
*1560 FILLER_16_177
*1561 FILLER_16_189
*1562 FILLER_16_195
*1563 FILLER_16_197
*1564 FILLER_16_209
*1565 FILLER_16_221
*1566 FILLER_16_233
*1567 FILLER_16_245
*1568 FILLER_16_251
*1569 FILLER_16_253
*1570 FILLER_16_265
*1571 FILLER_16_27
*1572 FILLER_16_277
*1573 FILLER_16_289
*1574 FILLER_16_29
*1575 FILLER_16_3
*1576 FILLER_16_301
*1577 FILLER_16_307
*1578 FILLER_16_309
*1579 FILLER_16_321
*1580 FILLER_16_333
*1581 FILLER_16_345
*1582 FILLER_16_357
*1583 FILLER_16_363