*SPEF "ieee 1481-1999"
*DESIGN "wrapped_instrumented_adder_sklansky"
*DATE "11:11:11 Fri 11 11, 1111"
*VENDOR "OpenRCX"
*PROGRAM "Parallel Extraction"
*VERSION "1.0"
*DESIGN_FLOW "NAME_SCOPE LOCAL" "PIN_CAP NONE"
*DIVIDER /
*DELIMITER :
*BUS_DELIMITER []
*T_UNIT 1 NS
*C_UNIT 1 PF
*R_UNIT 1 OHM
*L_UNIT 1 HENRY

*NAME_MAP
*1 active
*2 la1_data_in[0]
*3 la1_data_in[10]
*4 la1_data_in[11]
*5 la1_data_in[12]
*6 la1_data_in[13]
*7 la1_data_in[14]
*8 la1_data_in[15]
*9 la1_data_in[16]
*10 la1_data_in[17]
*11 la1_data_in[18]
*12 la1_data_in[19]
*13 la1_data_in[1]
*14 la1_data_in[20]
*15 la1_data_in[21]
*16 la1_data_in[22]
*17 la1_data_in[23]
*18 la1_data_in[24]
*19 la1_data_in[25]
*20 la1_data_in[26]
*21 la1_data_in[27]
*22 la1_data_in[28]
*23 la1_data_in[29]
*24 la1_data_in[2]
*25 la1_data_in[30]
*26 la1_data_in[31]
*27 la1_data_in[3]
*28 la1_data_in[4]
*29 la1_data_in[5]
*30 la1_data_in[6]
*31 la1_data_in[7]
*32 la1_data_in[8]
*33 la1_data_in[9]
*34 la1_data_out[0]
*35 la1_data_out[10]
*36 la1_data_out[11]
*37 la1_data_out[12]
*38 la1_data_out[13]
*39 la1_data_out[14]
*40 la1_data_out[15]
*41 la1_data_out[16]
*42 la1_data_out[17]
*43 la1_data_out[18]
*44 la1_data_out[19]
*45 la1_data_out[1]
*46 la1_data_out[20]
*47 la1_data_out[21]
*48 la1_data_out[22]
*49 la1_data_out[23]
*50 la1_data_out[24]
*51 la1_data_out[25]
*52 la1_data_out[26]
*53 la1_data_out[27]
*54 la1_data_out[28]
*55 la1_data_out[29]
*56 la1_data_out[2]
*57 la1_data_out[30]
*58 la1_data_out[31]
*59 la1_data_out[3]
*60 la1_data_out[4]
*61 la1_data_out[5]
*62 la1_data_out[6]
*63 la1_data_out[7]
*64 la1_data_out[8]
*65 la1_data_out[9]
*66 la1_oenb[0]
*67 la1_oenb[10]
*68 la1_oenb[11]
*69 la1_oenb[12]
*70 la1_oenb[13]
*71 la1_oenb[14]
*72 la1_oenb[15]
*73 la1_oenb[16]
*74 la1_oenb[17]
*75 la1_oenb[18]
*76 la1_oenb[19]
*77 la1_oenb[1]
*78 la1_oenb[20]
*79 la1_oenb[21]
*80 la1_oenb[22]
*81 la1_oenb[23]
*82 la1_oenb[24]
*83 la1_oenb[25]
*84 la1_oenb[26]
*85 la1_oenb[27]
*86 la1_oenb[28]
*87 la1_oenb[29]
*88 la1_oenb[2]
*89 la1_oenb[30]
*90 la1_oenb[31]
*91 la1_oenb[3]
*92 la1_oenb[4]
*93 la1_oenb[5]
*94 la1_oenb[6]
*95 la1_oenb[7]
*96 la1_oenb[8]
*97 la1_oenb[9]
*98 la2_data_in[0]
*99 la2_data_in[10]
*100 la2_data_in[11]
*101 la2_data_in[12]
*102 la2_data_in[13]
*103 la2_data_in[14]
*104 la2_data_in[15]
*105 la2_data_in[16]
*106 la2_data_in[17]
*107 la2_data_in[18]
*108 la2_data_in[19]
*109 la2_data_in[1]
*110 la2_data_in[20]
*111 la2_data_in[21]
*112 la2_data_in[22]
*113 la2_data_in[23]
*114 la2_data_in[24]
*115 la2_data_in[25]
*116 la2_data_in[26]
*117 la2_data_in[27]
*118 la2_data_in[28]
*119 la2_data_in[29]
*120 la2_data_in[2]
*121 la2_data_in[30]
*122 la2_data_in[31]
*123 la2_data_in[3]
*124 la2_data_in[4]
*125 la2_data_in[5]
*126 la2_data_in[6]
*127 la2_data_in[7]
*128 la2_data_in[8]
*129 la2_data_in[9]
*130 la2_data_out[0]
*131 la2_data_out[10]
*132 la2_data_out[11]
*133 la2_data_out[12]
*134 la2_data_out[13]
*135 la2_data_out[14]
*136 la2_data_out[15]
*137 la2_data_out[16]
*138 la2_data_out[17]
*139 la2_data_out[18]
*140 la2_data_out[19]
*141 la2_data_out[1]
*142 la2_data_out[20]
*143 la2_data_out[21]
*144 la2_data_out[22]
*145 la2_data_out[23]
*146 la2_data_out[24]
*147 la2_data_out[25]
*148 la2_data_out[26]
*149 la2_data_out[27]
*150 la2_data_out[28]
*151 la2_data_out[29]
*152 la2_data_out[2]
*153 la2_data_out[30]
*154 la2_data_out[31]
*155 la2_data_out[3]
*156 la2_data_out[4]
*157 la2_data_out[5]
*158 la2_data_out[6]
*159 la2_data_out[7]
*160 la2_data_out[8]
*161 la2_data_out[9]
*162 la2_oenb[0]
*163 la2_oenb[10]
*164 la2_oenb[11]
*165 la2_oenb[12]
*166 la2_oenb[13]
*167 la2_oenb[14]
*168 la2_oenb[15]
*169 la2_oenb[16]
*170 la2_oenb[17]
*171 la2_oenb[18]
*172 la2_oenb[19]
*173 la2_oenb[1]
*174 la2_oenb[20]
*175 la2_oenb[21]
*176 la2_oenb[22]
*177 la2_oenb[23]
*178 la2_oenb[24]
*179 la2_oenb[25]
*180 la2_oenb[26]
*181 la2_oenb[27]
*182 la2_oenb[28]
*183 la2_oenb[29]
*184 la2_oenb[2]
*185 la2_oenb[30]
*186 la2_oenb[31]
*187 la2_oenb[3]
*188 la2_oenb[4]
*189 la2_oenb[5]
*190 la2_oenb[6]
*191 la2_oenb[7]
*192 la2_oenb[8]
*193 la2_oenb[9]
*194 la3_data_in[0]
*195 la3_data_in[10]
*196 la3_data_in[11]
*197 la3_data_in[12]
*198 la3_data_in[13]
*199 la3_data_in[14]
*200 la3_data_in[15]
*201 la3_data_in[16]
*202 la3_data_in[17]
*203 la3_data_in[18]
*204 la3_data_in[19]
*205 la3_data_in[1]
*206 la3_data_in[20]
*207 la3_data_in[21]
*208 la3_data_in[22]
*209 la3_data_in[23]
*210 la3_data_in[24]
*211 la3_data_in[25]
*212 la3_data_in[26]
*213 la3_data_in[27]
*214 la3_data_in[28]
*215 la3_data_in[29]
*216 la3_data_in[2]
*217 la3_data_in[30]
*218 la3_data_in[31]
*219 la3_data_in[3]
*220 la3_data_in[4]
*221 la3_data_in[5]
*222 la3_data_in[6]
*223 la3_data_in[7]
*224 la3_data_in[8]
*225 la3_data_in[9]
*226 la3_data_out[0]
*227 la3_data_out[10]
*228 la3_data_out[11]
*229 la3_data_out[12]
*230 la3_data_out[13]
*231 la3_data_out[14]
*232 la3_data_out[15]
*233 la3_data_out[16]
*234 la3_data_out[17]
*235 la3_data_out[18]
*236 la3_data_out[19]
*237 la3_data_out[1]
*238 la3_data_out[20]
*239 la3_data_out[21]
*240 la3_data_out[22]
*241 la3_data_out[23]
*242 la3_data_out[24]
*243 la3_data_out[25]
*244 la3_data_out[26]
*245 la3_data_out[27]
*246 la3_data_out[28]
*247 la3_data_out[29]
*248 la3_data_out[2]
*249 la3_data_out[30]
*250 la3_data_out[31]
*251 la3_data_out[3]
*252 la3_data_out[4]
*253 la3_data_out[5]
*254 la3_data_out[6]
*255 la3_data_out[7]
*256 la3_data_out[8]
*257 la3_data_out[9]
*258 la3_oenb[0]
*259 la3_oenb[10]
*260 la3_oenb[11]
*261 la3_oenb[12]
*262 la3_oenb[13]
*263 la3_oenb[14]
*264 la3_oenb[15]
*265 la3_oenb[16]
*266 la3_oenb[17]
*267 la3_oenb[18]
*268 la3_oenb[19]
*269 la3_oenb[1]
*270 la3_oenb[20]
*271 la3_oenb[21]
*272 la3_oenb[22]
*273 la3_oenb[23]
*274 la3_oenb[24]
*275 la3_oenb[25]
*276 la3_oenb[26]
*277 la3_oenb[27]
*278 la3_oenb[28]
*279 la3_oenb[29]
*280 la3_oenb[2]
*281 la3_oenb[30]
*282 la3_oenb[31]
*283 la3_oenb[3]
*284 la3_oenb[4]
*285 la3_oenb[5]
*286 la3_oenb[6]
*287 la3_oenb[7]
*288 la3_oenb[8]
*289 la3_oenb[9]
*292 wb_clk_i
*293 _0000_
*294 _0001_
*295 _0002_
*296 _0003_
*297 _0004_
*298 _0005_
*299 _0006_
*300 _0007_
*301 _0008_
*302 _0009_
*303 _0010_
*304 _0011_
*305 _0012_
*306 _0013_
*307 _0014_
*308 _0015_
*309 _0016_
*310 _0017_
*311 _0018_
*312 _0019_
*313 _0020_
*314 _0021_
*315 _0022_
*316 _0023_
*317 _0024_
*318 _0025_
*319 _0026_
*320 _0027_
*321 _0028_
*322 _0029_
*323 _0030_
*324 _0031_
*325 _0032_
*326 _0033_
*327 _0034_
*328 _0035_
*329 _0036_
*330 _0037_
*331 _0038_
*332 _0039_
*333 _0040_
*334 _0041_
*335 _0042_
*336 _0043_
*337 _0044_
*338 _0045_
*339 _0046_
*340 _0047_
*341 _0048_
*342 _0049_
*343 _0050_
*344 _0051_
*345 _0052_
*346 _0053_
*347 _0054_
*348 _0055_
*349 _0056_
*350 _0057_
*351 _0058_
*352 _0059_
*353 _0060_
*354 _0061_
*355 _0062_
*356 _0063_
*357 _0064_
*358 _0065_
*359 _0066_
*360 _0067_
*361 _0068_
*362 _0069_
*363 _0070_
*364 _0071_
*365 _0072_
*366 _0073_
*367 _0074_
*368 _0075_
*369 _0076_
*370 _0077_
*371 _0078_
*372 _0079_
*373 _0080_
*374 _0081_
*375 _0082_
*376 _0083_
*377 _0084_
*378 _0085_
*379 _0086_
*380 _0087_
*381 _0088_
*382 _0089_
*383 _0090_
*384 _0091_
*385 _0092_
*386 _0093_
*387 _0094_
*388 _0095_
*389 _0096_
*390 _0097_
*391 _0098_
*392 _0099_
*393 _0100_
*394 _0101_
*395 _0102_
*396 _0103_
*397 _0104_
*398 _0105_
*399 _0106_
*400 _0107_
*401 _0108_
*402 _0109_
*403 _0110_
*404 _0111_
*405 _0112_
*406 _0113_
*407 _0114_
*408 _0115_
*409 _0116_
*410 _0117_
*411 _0118_
*412 _0119_
*413 _0120_
*414 _0121_
*415 _0122_
*416 _0123_
*417 _0124_
*418 _0125_
*419 _0126_
*420 _0127_
*421 _0128_
*422 _0129_
*423 _0130_
*424 _0131_
*425 _0132_
*426 _0133_
*427 _0134_
*428 _0135_
*429 _0136_
*430 _0137_
*431 _0138_
*432 _0139_
*433 _0140_
*434 _0141_
*435 _0142_
*436 _0143_
*437 _0144_
*438 _0145_
*439 _0146_
*440 _0147_
*441 _0148_
*442 _0149_
*443 _0150_
*444 _0151_
*445 _0152_
*446 _0153_
*447 _0154_
*448 _0155_
*449 _0156_
*450 _0157_
*451 _0158_
*452 _0159_
*453 _0160_
*454 _0161_
*455 _0162_
*456 _0163_
*457 _0164_
*458 _0165_
*459 _0166_
*460 _0167_
*461 _0168_
*462 _0169_
*463 _0170_
*464 _0171_
*465 _0172_
*466 _0173_
*467 _0174_
*468 _0175_
*469 _0176_
*470 _0177_
*471 _0178_
*472 _0179_
*473 _0180_
*474 _0181_
*475 _0182_
*476 _0183_
*477 _0184_
*478 _0185_
*479 _0186_
*480 _0187_
*481 _0188_
*482 _0189_
*483 _0190_
*484 _0191_
*485 _0192_
*486 _0193_
*487 _0194_
*488 _0195_
*489 _0196_
*490 _0197_
*491 _0198_
*492 _0199_
*493 _0200_
*494 _0201_
*495 _0202_
*496 _0203_
*497 _0204_
*498 _0205_
*499 _0206_
*500 _0207_
*501 _0208_
*502 _0209_
*503 _0210_
*504 _0211_
*505 _0212_
*506 _0213_
*507 _0214_
*508 _0215_
*509 _0216_
*510 _0217_
*511 _0218_
*512 _0219_
*513 _0220_
*514 _0221_
*515 _0222_
*516 _0223_
*517 _0224_
*518 _0225_
*519 _0226_
*520 _0227_
*521 _0228_
*522 _0229_
*523 _0230_
*524 _0231_
*525 _0232_
*526 _0233_
*527 _0234_
*528 _0235_
*529 _0236_
*530 _0237_
*531 _0238_
*532 _0239_
*533 _0240_
*534 _0241_
*535 _0242_
*536 _0243_
*537 _0244_
*538 _0245_
*539 _0246_
*540 _0247_
*541 _0248_
*542 _0249_
*543 _0250_
*544 _0251_
*545 _0252_
*546 _0253_
*547 _0254_
*548 _0255_
*549 _0256_
*550 _0257_
*551 _0258_
*552 _0259_
*553 _0260_
*554 _0261_
*555 _0262_
*556 _0263_
*557 _0264_
*558 _0265_
*559 _0266_
*560 _0267_
*561 _0268_
*562 _0269_
*563 _0270_
*564 _0271_
*565 _0272_
*566 _0273_
*567 _0274_
*568 _0275_
*569 _0276_
*570 _0277_
*571 _0278_
*572 _0279_
*573 _0280_
*574 _0281_
*575 _0282_
*576 _0283_
*577 _0284_
*578 _0285_
*579 _0286_
*580 _0287_
*581 _0288_
*582 _0289_
*583 _0290_
*584 _0291_
*585 _0292_
*586 _0293_
*587 _0294_
*588 _0295_
*589 _0296_
*590 _0297_
*591 _0298_
*592 _0299_
*593 _0300_
*594 _0301_
*595 _0302_
*596 _0303_
*597 _0304_
*598 _0305_
*599 _0306_
*600 _0307_
*601 _0308_
*602 _0309_
*603 _0310_
*604 _0311_
*605 _0312_
*606 _0313_
*607 _0314_
*608 _0315_
*609 _0316_
*610 _0317_
*611 _0318_
*612 _0319_
*613 _0320_
*614 _0321_
*615 _0322_
*616 _0323_
*617 _0324_
*618 _0325_
*619 _0326_
*620 _0327_
*621 _0328_
*622 _0329_
*623 _0330_
*624 _0331_
*625 _0332_
*626 _0333_
*627 _0334_
*628 _0335_
*629 _0336_
*630 _0337_
*631 _0338_
*632 _0339_
*633 _0340_
*634 _0341_
*635 _0342_
*636 _0343_
*637 _0344_
*638 _0345_
*639 _0346_
*640 _0347_
*641 _0348_
*642 _0349_
*643 _0350_
*644 _0351_
*645 _0352_
*646 _0353_
*647 _0354_
*648 _0355_
*649 _0356_
*650 _0357_
*651 _0358_
*652 _0359_
*653 _0360_
*654 _0361_
*655 _0362_
*656 _0363_
*657 _0364_
*658 _0365_
*659 _0366_
*660 _0367_
*661 _0368_
*662 _0369_
*663 _0370_
*664 _0371_
*665 _0372_
*666 _0373_
*667 _0374_
*668 _0375_
*669 _0376_
*670 _0377_
*671 _0378_
*672 _0379_
*673 _0380_
*674 _0381_
*675 _0382_
*676 _0383_
*677 _0384_
*678 _0385_
*679 _0386_
*680 _0387_
*681 _0388_
*682 _0389_
*683 _0390_
*684 _0391_
*685 _0392_
*686 _0393_
*687 _0394_
*688 _0395_
*689 _0396_
*690 _0397_
*691 _0398_
*692 _0399_
*693 _0400_
*694 _0401_
*695 _0402_
*696 _0403_
*697 _0404_
*698 _0405_
*699 _0406_
*700 _0407_
*701 _0408_
*702 _0409_
*703 _0410_
*704 _0411_
*705 _0412_
*706 _0413_
*707 _0414_
*708 _0415_
*709 _0416_
*710 _0417_
*711 _0418_
*712 _0419_
*713 _0420_
*714 _0421_
*715 _0422_
*716 _0423_
*717 _0424_
*718 _0425_
*719 _0426_
*720 _0427_
*721 _0428_
*722 _0429_
*723 _0430_
*724 _0431_
*725 _0432_
*726 _0433_
*727 _0434_
*728 _0435_
*729 _0436_
*730 _0437_
*731 _0438_
*732 _0439_
*733 _0440_
*734 _0441_
*735 _0442_
*736 _0443_
*737 _0444_
*738 _0445_
*739 _0446_
*740 _0447_
*741 _0448_
*742 _0449_
*743 _0450_
*744 _0451_
*745 _0452_
*746 _0453_
*747 _0454_
*748 _0455_
*749 _0456_
*750 _0457_
*751 _0458_
*752 _0459_
*753 _0460_
*754 _0461_
*755 _0462_
*756 _0463_
*757 _0464_
*758 _0465_
*759 _0466_
*760 _0467_
*761 _0468_
*762 _0469_
*763 _0470_
*764 _0471_
*765 _0472_
*766 _0473_
*767 _0474_
*768 _0475_
*769 _0476_
*770 _0477_
*771 _0478_
*772 _0479_
*773 _0480_
*774 _0481_
*775 _0482_
*776 _0483_
*777 _0484_
*778 _0485_
*779 _0486_
*780 _0487_
*781 _0488_
*782 _0489_
*783 _0490_
*784 _0491_
*785 _0492_
*786 _0493_
*787 _0494_
*788 _0495_
*789 _0496_
*790 _0497_
*791 _0498_
*792 _0499_
*793 _0500_
*794 _0501_
*795 _0502_
*796 _0503_
*797 _0504_
*798 _0505_
*799 _0506_
*800 _0507_
*801 _0508_
*802 _0509_
*803 _0510_
*804 _0511_
*805 clknet_0_wb_clk_i
*806 clknet_1_0_0_wb_clk_i
*807 clknet_1_1_0_wb_clk_i
*808 clknet_2_0_0_wb_clk_i
*809 clknet_2_1_0_wb_clk_i
*810 clknet_2_2_0_wb_clk_i
*811 clknet_2_3_0_wb_clk_i
*812 instrumented_adder\.bypass1\.A
*813 instrumented_adder\.bypass1\.Z
*814 instrumented_adder\.bypass2\.Z
*815 instrumented_adder\.chain_in
*816 instrumented_adder\.chain_out
*817 instrumented_adder\.control1\.Z
*818 instrumented_adder\.control2\.A
*819 instrumented_adder\.control_inverters\[0\]\.Y
*820 instrumented_adder\.control_inverters\[1\]\.Y
*821 instrumented_adder\.control_inverters\[2\]\.Y
*822 instrumented_adder\.done
*823 instrumented_adder\.f0
*824 instrumented_adder\.integration_counter\[0\]
*825 instrumented_adder\.integration_counter\[10\]
*826 instrumented_adder\.integration_counter\[11\]
*827 instrumented_adder\.integration_counter\[12\]
*828 instrumented_adder\.integration_counter\[13\]
*829 instrumented_adder\.integration_counter\[14\]
*830 instrumented_adder\.integration_counter\[15\]
*831 instrumented_adder\.integration_counter\[16\]
*832 instrumented_adder\.integration_counter\[17\]
*833 instrumented_adder\.integration_counter\[18\]
*834 instrumented_adder\.integration_counter\[19\]
*835 instrumented_adder\.integration_counter\[1\]
*836 instrumented_adder\.integration_counter\[20\]
*837 instrumented_adder\.integration_counter\[21\]
*838 instrumented_adder\.integration_counter\[22\]
*839 instrumented_adder\.integration_counter\[23\]
*840 instrumented_adder\.integration_counter\[24\]
*841 instrumented_adder\.integration_counter\[25\]
*842 instrumented_adder\.integration_counter\[26\]
*843 instrumented_adder\.integration_counter\[27\]
*844 instrumented_adder\.integration_counter\[28\]
*845 instrumented_adder\.integration_counter\[29\]
*846 instrumented_adder\.integration_counter\[2\]
*847 instrumented_adder\.integration_counter\[30\]
*848 instrumented_adder\.integration_counter\[31\]
*849 instrumented_adder\.integration_counter\[3\]
*850 instrumented_adder\.integration_counter\[4\]
*851 instrumented_adder\.integration_counter\[5\]
*852 instrumented_adder\.integration_counter\[6\]
*853 instrumented_adder\.integration_counter\[7\]
*854 instrumented_adder\.integration_counter\[8\]
*855 instrumented_adder\.integration_counter\[9\]
*856 instrumented_adder\.inverters\[0\]\.Y
*857 instrumented_adder\.inverters\[10\]\.A
*858 instrumented_adder\.inverters\[10\]\.Y
*859 instrumented_adder\.inverters\[11\]\.Y
*860 instrumented_adder\.inverters\[12\]\.Y
*861 instrumented_adder\.inverters\[13\]\.Y
*862 instrumented_adder\.inverters\[14\]\.Y
*863 instrumented_adder\.inverters\[15\]\.Y
*864 instrumented_adder\.inverters\[16\]\.Y
*865 instrumented_adder\.inverters\[17\]\.Y
*866 instrumented_adder\.inverters\[18\]\.Y
*867 instrumented_adder\.inverters\[19\]\.Y
*868 instrumented_adder\.inverters\[1\]\.Y
*869 instrumented_adder\.inverters\[20\]\.Y
*870 instrumented_adder\.inverters\[21\]\.Y
*871 instrumented_adder\.inverters\[22\]\.Y
*872 instrumented_adder\.inverters\[23\]\.Y
*873 instrumented_adder\.inverters\[24\]\.Y
*874 instrumented_adder\.inverters\[25\]\.Y
*875 instrumented_adder\.inverters\[26\]\.Y
*876 instrumented_adder\.inverters\[27\]\.Y
*877 instrumented_adder\.inverters\[28\]\.Y
*878 instrumented_adder\.inverters\[29\]\.Y
*879 instrumented_adder\.inverters\[2\]\.Y
*880 instrumented_adder\.inverters\[3\]\.Y
*881 instrumented_adder\.inverters\[4\]\.Y
*882 instrumented_adder\.inverters\[5\]\.Y
*883 instrumented_adder\.inverters\[6\]\.Y
*884 instrumented_adder\.inverters\[7\]\.Y
*885 instrumented_adder\.inverters\[8\]\.Y
*886 instrumented_adder\.r2
*887 instrumented_adder\.ring_osc_counter\[0\]
*888 instrumented_adder\.ring_osc_counter\[10\]
*889 instrumented_adder\.ring_osc_counter\[11\]
*890 instrumented_adder\.ring_osc_counter\[12\]
*891 instrumented_adder\.ring_osc_counter\[13\]
*892 instrumented_adder\.ring_osc_counter\[14\]
*893 instrumented_adder\.ring_osc_counter\[15\]
*894 instrumented_adder\.ring_osc_counter\[16\]
*895 instrumented_adder\.ring_osc_counter\[17\]
*896 instrumented_adder\.ring_osc_counter\[18\]
*897 instrumented_adder\.ring_osc_counter\[19\]
*898 instrumented_adder\.ring_osc_counter\[1\]
*899 instrumented_adder\.ring_osc_counter\[20\]
*900 instrumented_adder\.ring_osc_counter\[21\]
*901 instrumented_adder\.ring_osc_counter\[22\]
*902 instrumented_adder\.ring_osc_counter\[23\]
*903 instrumented_adder\.ring_osc_counter\[24\]
*904 instrumented_adder\.ring_osc_counter\[25\]
*905 instrumented_adder\.ring_osc_counter\[26\]
*906 instrumented_adder\.ring_osc_counter\[27\]
*907 instrumented_adder\.ring_osc_counter\[28\]
*908 instrumented_adder\.ring_osc_counter\[29\]
*909 instrumented_adder\.ring_osc_counter\[2\]
*910 instrumented_adder\.ring_osc_counter\[30\]
*911 instrumented_adder\.ring_osc_counter\[31\]
*912 instrumented_adder\.ring_osc_counter\[3\]
*913 instrumented_adder\.ring_osc_counter\[4\]
*914 instrumented_adder\.ring_osc_counter\[5\]
*915 instrumented_adder\.ring_osc_counter\[6\]
*916 instrumented_adder\.ring_osc_counter\[7\]
*917 instrumented_adder\.ring_osc_counter\[8\]
*918 instrumented_adder\.ring_osc_counter\[9\]
*919 instrumented_adder\.tristate_ext_inputs\[0\]\.Z
*920 instrumented_adder\.tristate_ext_inputs\[1\]\.Z
*921 instrumented_adder\.tristate_ext_inputs\[2\]\.Z
*922 instrumented_adder\.tristate_ext_inputs\[3\]\.Z
*923 instrumented_adder\.tristate_ext_inputs\[4\]\.Z
*924 instrumented_adder\.tristate_ext_inputs\[5\]\.Z
*925 instrumented_adder\.tristate_ext_inputs\[6\]\.Z
*926 instrumented_adder\.tristate_ext_inputs\[7\]\.Z
*927 instrumented_adder\.tristate_sum_outputs\[0\]\.A
*928 instrumented_adder\.tristate_sum_outputs\[1\]\.A
*929 instrumented_adder\.tristate_sum_outputs\[2\]\.A
*930 instrumented_adder\.tristate_sum_outputs\[3\]\.A
*931 instrumented_adder\.tristate_sum_outputs\[4\]\.A
*932 instrumented_adder\.tristate_sum_outputs\[5\]\.A
*933 instrumented_adder\.tristate_sum_outputs\[6\]\.A
*934 instrumented_adder\.tristate_sum_outputs\[7\]\.A
*935 net1
*936 net10
*937 net100
*938 net101
*939 net102
*940 net103
*941 net104
*942 net105
*943 net106
*944 net107
*945 net108
*946 net109
*947 net11
*948 net110
*949 net111
*950 net112
*951 net113
*952 net114
*953 net115
*954 net116
*955 net117
*956 net118
*957 net119
*958 net12
*959 net120
*960 net121
*961 net122
*962 net123
*963 net124
*964 net125
*965 net126
*966 net127
*967 net128
*968 net129
*969 net13
*970 net130
*971 net131
*972 net132
*973 net133
*974 net134
*975 net135
*976 net14
*977 net15
*978 net16
*979 net17
*980 net18
*981 net19
*982 net2
*983 net20
*984 net21
*985 net22
*986 net23
*987 net24
*988 net25
*989 net26
*990 net27
*991 net28
*992 net29
*993 net3
*994 net30
*995 net31
*996 net32
*997 net33
*998 net34
*999 net35
*1000 net36
*1001 net37
*1002 net38
*1003 net39
*1004 net4
*1005 net40
*1006 net41
*1007 net42
*1008 net43
*1009 net44
*1010 net45
*1011 net46
*1012 net47
*1013 net48
*1014 net49
*1015 net5
*1016 net50
*1017 net51
*1018 net52
*1019 net53
*1020 net54
*1021 net55
*1022 net56
*1023 net57
*1024 net58
*1025 net59
*1026 net6
*1027 net60
*1028 net61
*1029 net62
*1030 net63
*1031 net64
*1032 net65
*1033 net66
*1034 net67
*1035 net68
*1036 net69
*1037 net7
*1038 net70
*1039 net71
*1040 net72
*1041 net73
*1042 net74
*1043 net75
*1044 net76
*1045 net77
*1046 net78
*1047 net79
*1048 net8
*1049 net80
*1050 net81
*1051 net82
*1052 net83
*1053 net84
*1054 net85
*1055 net86
*1056 net87
*1057 net88
*1058 net89
*1059 net9
*1060 net90
*1061 net91
*1062 net92
*1063 net93
*1064 net94
*1065 net95
*1066 net96
*1067 net97
*1068 net98
*1069 net99
*1070 ANTENNA_0
*1071 ANTENNA_1
*1072 ANTENNA_2
*1073 FILLER_0_107
*1074 FILLER_0_111
*1075 FILLER_0_113
*1076 FILLER_0_125
*1077 FILLER_0_13
*1078 FILLER_0_137
*1079 FILLER_0_141
*1080 FILLER_0_153
*1081 FILLER_0_164
*1082 FILLER_0_173
*1083 FILLER_0_180
*1084 FILLER_0_187
*1085 FILLER_0_195
*1086 FILLER_0_197
*1087 FILLER_0_204
*1088 FILLER_0_212
*1089 FILLER_0_220
*1090 FILLER_0_23
*1091 FILLER_0_241
*1092 FILLER_0_248
*1093 FILLER_0_253
*1094 FILLER_0_261
*1095 FILLER_0_269
*1096 FILLER_0_27
*1097 FILLER_0_276
*1098 FILLER_0_281
*1099 FILLER_0_289
*1100 FILLER_0_29
*1101 FILLER_0_3
*1102 FILLER_0_301
*1103 FILLER_0_307
*1104 FILLER_0_309
*1105 FILLER_0_321
*1106 FILLER_0_333
*1107 FILLER_0_337
*1108 FILLER_0_349
*1109 FILLER_0_361
*1110 FILLER_0_365
*1111 FILLER_0_373
*1112 FILLER_0_378
*1113 FILLER_0_385
*1114 FILLER_0_391
*1115 FILLER_0_393
*1116 FILLER_0_401
*1117 FILLER_0_406
*1118 FILLER_0_41
*1119 FILLER_0_412
*1120 FILLER_0_416
*1121 FILLER_0_421
*1122 FILLER_0_429
*1123 FILLER_0_433
*1124 FILLER_0_444
*1125 FILLER_0_449
*1126 FILLER_0_457
*1127 FILLER_0_461
*1128 FILLER_0_472
*1129 FILLER_0_477
*1130 FILLER_0_48
*1131 FILLER_0_486
*1132 FILLER_0_500
*1133 FILLER_0_505
*1134 FILLER_0_512
*1135 FILLER_0_57
*1136 FILLER_0_69
*1137 FILLER_0_78
*1138 FILLER_0_85
*1139 FILLER_0_95
*1140 FILLER_10_109
*1141 FILLER_10_118
*1142 FILLER_10_130
*1143 FILLER_10_138
*1144 FILLER_10_141
*1145 FILLER_10_148
*1146 FILLER_10_15
*1147 FILLER_10_155
*1148 FILLER_10_167
*1149 FILLER_10_179
*1150 FILLER_10_191
*1151 FILLER_10_195
*1152 FILLER_10_197
*1153 FILLER_10_209
*1154 FILLER_10_221
*1155 FILLER_10_233
*1156 FILLER_10_245
*1157 FILLER_10_251
*1158 FILLER_10_253
*1159 FILLER_10_265
*1160 FILLER_10_27
*1161 FILLER_10_277
*1162 FILLER_10_289
*1163 FILLER_10_29
*1164 FILLER_10_3
*1165 FILLER_10_301
*1166 FILLER_10_307
*1167 FILLER_10_309
*1168 FILLER_10_321
*1169 FILLER_10_333
*1170 FILLER_10_345
*1171 FILLER_10_357
*1172 FILLER_10_363
*1173 FILLER_10_365
*1174 FILLER_10_377
*1175 FILLER_10_389
*1176 FILLER_10_401
*1177 FILLER_10_41
*1178 FILLER_10_413
*1179 FILLER_10_419
*1180 FILLER_10_421
*1181 FILLER_10_433
*1182 FILLER_10_445
*1183 FILLER_10_457
*1184 FILLER_10_469
*1185 FILLER_10_475
*1186 FILLER_10_477
*1187 FILLER_10_489
*1188 FILLER_10_512
*1189 FILLER_10_53
*1190 FILLER_10_65
*1191 FILLER_10_77
*1192 FILLER_10_83
*1193 FILLER_10_85
*1194 FILLER_10_97
*1195 FILLER_11_105
*1196 FILLER_11_111
*1197 FILLER_11_113
*1198 FILLER_11_136
*1199 FILLER_11_140
*1200 FILLER_11_15
*1201 FILLER_11_162
*1202 FILLER_11_169
*1203 FILLER_11_181
*1204 FILLER_11_193
*1205 FILLER_11_205
*1206 FILLER_11_217
*1207 FILLER_11_223
*1208 FILLER_11_225
*1209 FILLER_11_237
*1210 FILLER_11_249
*1211 FILLER_11_261
*1212 FILLER_11_27
*1213 FILLER_11_273
*1214 FILLER_11_279
*1215 FILLER_11_281
*1216 FILLER_11_293
*1217 FILLER_11_3
*1218 FILLER_11_305
*1219 FILLER_11_317
*1220 FILLER_11_329
*1221 FILLER_11_335
*1222 FILLER_11_337
*1223 FILLER_11_349
*1224 FILLER_11_361
*1225 FILLER_11_373
*1226 FILLER_11_385
*1227 FILLER_11_39
*1228 FILLER_11_391
*1229 FILLER_11_393
*1230 FILLER_11_405
*1231 FILLER_11_417
*1232 FILLER_11_429
*1233 FILLER_11_441
*1234 FILLER_11_447
*1235 FILLER_11_449
*1236 FILLER_11_461
*1237 FILLER_11_473
*1238 FILLER_11_485
*1239 FILLER_11_497
*1240 FILLER_11_503
*1241 FILLER_11_505
*1242 FILLER_11_51
*1243 FILLER_11_512
*1244 FILLER_11_55
*1245 FILLER_11_57
*1246 FILLER_11_69
*1247 FILLER_11_81
*1248 FILLER_11_93
*1249 FILLER_12_109
*1250 FILLER_12_136
*1251 FILLER_12_141
*1252 FILLER_12_15
*1253 FILLER_12_164
*1254 FILLER_12_189
*1255 FILLER_12_195
*1256 FILLER_12_197
*1257 FILLER_12_209
*1258 FILLER_12_221
*1259 FILLER_12_233
*1260 FILLER_12_245
*1261 FILLER_12_251
*1262 FILLER_12_253
*1263 FILLER_12_265
*1264 FILLER_12_27
*1265 FILLER_12_277
*1266 FILLER_12_289
*1267 FILLER_12_29
*1268 FILLER_12_3
*1269 FILLER_12_301
*1270 FILLER_12_307
*1271 FILLER_12_309
*1272 FILLER_12_321
*1273 FILLER_12_333
*1274 FILLER_12_345
*1275 FILLER_12_357
*1276 FILLER_12_363
*1277 FILLER_12_365
*1278 FILLER_12_377
*1279 FILLER_12_389
*1280 FILLER_12_401
*1281 FILLER_12_41
*1282 FILLER_12_413
*1283 FILLER_12_419
*1284 FILLER_12_421
*1285 FILLER_12_433
*1286 FILLER_12_445
*1287 FILLER_12_457
*1288 FILLER_12_469
*1289 FILLER_12_475
*1290 FILLER_12_477
*1291 FILLER_12_489
*1292 FILLER_12_501
*1293 FILLER_12_512
*1294 FILLER_12_53
*1295 FILLER_12_65
*1296 FILLER_12_77
*1297 FILLER_12_83
*1298 FILLER_12_85
*1299 FILLER_12_97
*1300 FILLER_13_105
*1301 FILLER_13_111
*1302 FILLER_13_113
*1303 FILLER_13_125
*1304 FILLER_13_132
*1305 FILLER_13_139
*1306 FILLER_13_15
*1307 FILLER_13_164
*1308 FILLER_13_172
*1309 FILLER_13_184
*1310 FILLER_13_196
*1311 FILLER_13_208
*1312 FILLER_13_220
*1313 FILLER_13_225
*1314 FILLER_13_237
*1315 FILLER_13_249
*1316 FILLER_13_261
*1317 FILLER_13_27
*1318 FILLER_13_273
*1319 FILLER_13_279
*1320 FILLER_13_281
*1321 FILLER_13_293
*1322 FILLER_13_3
*1323 FILLER_13_305
*1324 FILLER_13_317
*1325 FILLER_13_329
*1326 FILLER_13_335
*1327 FILLER_13_337
*1328 FILLER_13_349
*1329 FILLER_13_361
*1330 FILLER_13_373
*1331 FILLER_13_385
*1332 FILLER_13_39
*1333 FILLER_13_391
*1334 FILLER_13_393
*1335 FILLER_13_405
*1336 FILLER_13_417
*1337 FILLER_13_429
*1338 FILLER_13_441
*1339 FILLER_13_447
*1340 FILLER_13_449
*1341 FILLER_13_461
*1342 FILLER_13_473
*1343 FILLER_13_485
*1344 FILLER_13_500
*1345 FILLER_13_508
*1346 FILLER_13_51
*1347 FILLER_13_55
*1348 FILLER_13_57
*1349 FILLER_13_69
*1350 FILLER_13_81
*1351 FILLER_13_93
*1352 FILLER_14_109
*1353 FILLER_14_121
*1354 FILLER_14_133
*1355 FILLER_14_139
*1356 FILLER_14_141
*1357 FILLER_14_147
*1358 FILLER_14_15
*1359 FILLER_14_172
*1360 FILLER_14_184
*1361 FILLER_14_197
*1362 FILLER_14_209
*1363 FILLER_14_221
*1364 FILLER_14_233
*1365 FILLER_14_245
*1366 FILLER_14_251
*1367 FILLER_14_253
*1368 FILLER_14_265
*1369 FILLER_14_27
*1370 FILLER_14_277
*1371 FILLER_14_289
*1372 FILLER_14_29
*1373 FILLER_14_3
*1374 FILLER_14_301
*1375 FILLER_14_307
*1376 FILLER_14_309
*1377 FILLER_14_321
*1378 FILLER_14_333
*1379 FILLER_14_345
*1380 FILLER_14_357
*1381 FILLER_14_363
*1382 FILLER_14_365
*1383 FILLER_14_377
*1384 FILLER_14_389
*1385 FILLER_14_401
*1386 FILLER_14_41
*1387 FILLER_14_413
*1388 FILLER_14_419
*1389 FILLER_14_421
*1390 FILLER_14_433
*1391 FILLER_14_445
*1392 FILLER_14_457
*1393 FILLER_14_469
*1394 FILLER_14_475
*1395 FILLER_14_477
*1396 FILLER_14_489
*1397 FILLER_14_512
*1398 FILLER_14_53
*1399 FILLER_14_65
*1400 FILLER_14_77
*1401 FILLER_14_83
*1402 FILLER_14_85
*1403 FILLER_14_97
*1404 FILLER_15_105
*1405 FILLER_15_111
*1406 FILLER_15_113
*1407 FILLER_15_142
*1408 FILLER_15_148
*1409 FILLER_15_15
*1410 FILLER_15_153
*1411 FILLER_15_165
*1412 FILLER_15_169
*1413 FILLER_15_181
*1414 FILLER_15_193
*1415 FILLER_15_205
*1416 FILLER_15_217
*1417 FILLER_15_223
*1418 FILLER_15_225
*1419 FILLER_15_237
*1420 FILLER_15_249
*1421 FILLER_15_261
*1422 FILLER_15_27
*1423 FILLER_15_273
*1424 FILLER_15_279
*1425 FILLER_15_281
*1426 FILLER_15_293
*1427 FILLER_15_3
*1428 FILLER_15_305
*1429 FILLER_15_317
*1430 FILLER_15_329
*1431 FILLER_15_335
*1432 FILLER_15_337
*1433 FILLER_15_349
*1434 FILLER_15_361
*1435 FILLER_15_373
*1436 FILLER_15_385
*1437 FILLER_15_39
*1438 FILLER_15_391
*1439 FILLER_15_393
*1440 FILLER_15_405
*1441 FILLER_15_417
*1442 FILLER_15_429
*1443 FILLER_15_441
*1444 FILLER_15_447
*1445 FILLER_15_449
*1446 FILLER_15_461
*1447 FILLER_15_473
*1448 FILLER_15_500
*1449 FILLER_15_508
*1450 FILLER_15_51
*1451 FILLER_15_55
*1452 FILLER_15_57
*1453 FILLER_15_69
*1454 FILLER_15_81
*1455 FILLER_15_93
*1456 FILLER_16_109
*1457 FILLER_16_124
*1458 FILLER_16_136
*1459 FILLER_16_141
*1460 FILLER_16_149
*1461 FILLER_16_15
*1462 FILLER_16_170
*1463 FILLER_16_182
*1464 FILLER_16_194
*1465 FILLER_16_197
*1466 FILLER_16_209
*1467 FILLER_16_221
*1468 FILLER_16_233
*1469 FILLER_16_245
*1470 FILLER_16_251
*1471 FILLER_16_253
*1472 FILLER_16_265
*1473 FILLER_16_27
*1474 FILLER_16_277
*1475 FILLER_16_289
*1476 FILLER_16_29
*1477 FILLER_16_3
*1478 FILLER_16_301
*1479 FILLER_16_307
*1480 FILLER_16_309
*1481 FILLER_16_321
*1482 FILLER_16_333
*1483 FILLER_16_345
*1484 FILLER_16_357
*1485 FILLER_16_363
*1486 FILLER_16_365
*1487 FILLER_16_377
*1488 FILLER_16_389
*1489 FILLER_16_401
*1490 FILLER_16_41
*1491 FILLER_16_413
*1492 FILLER_16_419
*1493 FILLER_16_421
*1494 FILLER_16_433
*1495 FILLER_16_445
*1496 FILLER_16_457
*1497 FILLER_16_469
*1498 FILLER_16_475
*1499 FILLER_16_477
*1500 FILLER_16_489
*1501 FILLER_16_512
*1502 FILLER_16_53
*1503 FILLER_16_65
*1504 FILLER_16_77
*1505 FILLER_16_83
*1506 FILLER_16_85
*1507 FILLER_16_97
*1508 FILLER_17_105
*1509 FILLER_17_111
*1510 FILLER_17_113
*1511 FILLER_17_123
*1512 FILLER_17_130
*1513 FILLER_17_136
*1514 FILLER_17_140
*1515 FILLER_17_15
*1516 FILLER_17_152
*1517 FILLER_17_156
*1518 FILLER_17_161
*1519 FILLER_17_167
*1520 FILLER_17_172
*1521 FILLER_17_180
*1522 FILLER_17_185
*1523 FILLER_17_197
*1524 FILLER_17_209
*1525 FILLER_17_221
*1526 FILLER_17_225
*1527 FILLER_17_237
*1528 FILLER_17_249
*1529 FILLER_17_261
*1530 FILLER_17_27
*1531 FILLER_17_273
*1532 FILLER_17_279
*1533 FILLER_17_281
*1534 FILLER_17_293
*1535 FILLER_17_3
*1536 FILLER_17_305
*1537 FILLER_17_317
*1538 FILLER_17_329
*1539 FILLER_17_335
*1540 FILLER_17_337
*1541 FILLER_17_349
*1542 FILLER_17_361
*1543 FILLER_17_373
*1544 FILLER_17_385
*1545 FILLER_17_39
*1546 FILLER_17_391
*1547 FILLER_17_393
*1548 FILLER_17_405
*1549 FILLER_17_417
*1550 FILLER_17_429
*1551 FILLER_17_441
*1552 FILLER_17_447
*1553 FILLER_17_449
*1554 FILLER_17_461
*1555 FILLER_17_473
*1556 FILLER_17_485
*1557 FILLER_17_493
*1558 FILLER_17_499
*1559 FILLER_17_503
*1560 FILLER_17_508
*1561 FILLER_17_51
*1562 FILLER_17_55
*1563 FILLER_17_57
*1564 FILLER_17_69
*1565 FILLER_17_81
*1566 FILLER_17_93
*1567 FILLER_18_109
*1568 FILLER_18_121
*1569 FILLER_18_128
*1570 FILLER_18_144
*1571 FILLER_18_15
*1572 FILLER_18_152
*1573 FILLER_18_158
*1574 FILLER_18_166
*1575 FILLER_18_191
*1576 FILLER_18_195
*1577 FILLER_18_197
*1578 FILLER_18_209
*1579 FILLER_18_221
*1580 FILLER_18_233
*1581 FILLER_18_245
*1582 FILLER_18_251
*1583 FILLER_18_253
*1584 FILLER_18_265
*1585 FILLER_18_27
*1586 FILLER_18_277
*1587 FILLER_18_289
*1588 FILLER_18_29
*1589 FILLER_18_3
*1590 FILLER_18_301
*1591 FILLER_18_307
*1592 FILLER_18_309