* NGSPICE file created from wrapped_instrumented_adder_kogge.ext - technology: sky130A

* Black-box entry subcircuit for sky130_fd_sc_hd__tapvpwrvgnd_1 abstract view
.subckt sky130_fd_sc_hd__tapvpwrvgnd_1 VGND VPWR
.ends

* Black-box entry subcircuit for sky130_fd_sc_hd__decap_4 abstract view
.subckt sky130_fd_sc_hd__decap_4 VGND VNB VPB VPWR
.ends

* Black-box entry subcircuit for sky130_fd_sc_hd__decap_12 abstract view
.subckt sky130_fd_sc_hd__decap_12 VGND VNB VPB VPWR
.ends

* Black-box entry subcircuit for sky130_fd_sc_hd__decap_6 abstract view
.subckt sky130_fd_sc_hd__decap_6 VGND VNB VPB VPWR
.ends

* Black-box entry subcircuit for sky130_fd_sc_hd__fill_1 abstract view
.subckt sky130_fd_sc_hd__fill_1 VGND VNB VPB VPWR
.ends

* Black-box entry subcircuit for sky130_fd_sc_hd__decap_8 abstract view
.subckt sky130_fd_sc_hd__decap_8 VGND VNB VPB VPWR
.ends

* Black-box entry subcircuit for sky130_fd_sc_hd__ebufn_8 abstract view
.subckt sky130_fd_sc_hd__ebufn_8 A TE_B VGND VNB VPB VPWR Z
.ends

* Black-box entry subcircuit for sky130_fd_sc_hd__and2b_1 abstract view
.subckt sky130_fd_sc_hd__and2b_1 A_N B VGND VNB VPB VPWR X
.ends

* Black-box entry subcircuit for sky130_fd_sc_hd__or2_1 abstract view
.subckt sky130_fd_sc_hd__or2_1 A B VGND VNB VPB VPWR X
.ends

* Black-box entry subcircuit for sky130_fd_sc_hd__inv_2 abstract view
.subckt sky130_fd_sc_hd__inv_2 A VGND VNB VPB VPWR Y
.ends

* Black-box entry subcircuit for sky130_fd_sc_hd__fill_2 abstract view
.subckt sky130_fd_sc_hd__fill_2 VGND VNB VPB VPWR
.ends

* Black-box entry subcircuit for sky130_fd_sc_hd__o2bb2a_1 abstract view
.subckt sky130_fd_sc_hd__o2bb2a_1 A1_N A2_N B1 B2 VGND VNB VPB VPWR X
.ends

* Black-box entry subcircuit for sky130_fd_sc_hd__a221o_1 abstract view
.subckt sky130_fd_sc_hd__a221o_1 A1 A2 B1 B2 C1 VGND VNB VPB VPWR X
.ends

* Black-box entry subcircuit for sky130_fd_sc_hd__clkbuf_1 abstract view
.subckt sky130_fd_sc_hd__clkbuf_1 A VGND VNB VPB VPWR X
.ends

* Black-box entry subcircuit for sky130_fd_sc_hd__conb_1 abstract view
.subckt sky130_fd_sc_hd__conb_1 VGND VNB VPB VPWR HI LO
.ends

* Black-box entry subcircuit for sky130_fd_sc_hd__xnor2_4 abstract view
.subckt sky130_fd_sc_hd__xnor2_4 A B VGND VNB VPB VPWR Y
.ends

* Black-box entry subcircuit for sky130_fd_sc_hd__and3_1 abstract view
.subckt sky130_fd_sc_hd__and3_1 A B C VGND VNB VPB VPWR X
.ends

* Black-box entry subcircuit for sky130_fd_sc_hd__or3b_1 abstract view
.subckt sky130_fd_sc_hd__or3b_1 A B C_N VGND VNB VPB VPWR X
.ends

* Black-box entry subcircuit for sky130_fd_sc_hd__and4_1 abstract view
.subckt sky130_fd_sc_hd__and4_1 A B C D VGND VNB VPB VPWR X
.ends

* Black-box entry subcircuit for sky130_fd_sc_hd__decap_3 abstract view
.subckt sky130_fd_sc_hd__decap_3 VGND VNB VPB VPWR
.ends

* Black-box entry subcircuit for sky130_fd_sc_hd__diode_2 abstract view
.subckt sky130_fd_sc_hd__diode_2 DIODE VGND VNB VPB VPWR
.ends

* Black-box entry subcircuit for sky130_fd_sc_hd__nor2_1 abstract view
.subckt sky130_fd_sc_hd__nor2_1 A B VGND VNB VPB VPWR Y
.ends

* Black-box entry subcircuit for sky130_fd_sc_hd__mux2_1 abstract view
.subckt sky130_fd_sc_hd__mux2_1 A0 A1 S VGND VNB VPB VPWR X
.ends

* Black-box entry subcircuit for sky130_fd_sc_hd__nand2_1 abstract view
.subckt sky130_fd_sc_hd__nand2_1 A B VGND VNB VPB VPWR Y
.ends

* Black-box entry subcircuit for sky130_fd_sc_hd__buf_2 abstract view
.subckt sky130_fd_sc_hd__buf_2 A VGND VNB VPB VPWR X
.ends

* Black-box entry subcircuit for sky130_fd_sc_hd__a31o_1 abstract view
.subckt sky130_fd_sc_hd__a31o_1 A1 A2 A3 B1 VGND VNB VPB VPWR X
.ends

* Black-box entry subcircuit for sky130_fd_sc_hd__nor3_1 abstract view
.subckt sky130_fd_sc_hd__nor3_1 A B C VGND VNB VPB VPWR Y
.ends

* Black-box entry subcircuit for sky130_fd_sc_hd__clkinv_2 abstract view
.subckt sky130_fd_sc_hd__clkinv_2 A VGND VNB VPB VPWR Y
.ends

* Black-box entry subcircuit for sky130_fd_sc_hd__xnor2_2 abstract view
.subckt sky130_fd_sc_hd__xnor2_2 A B VGND VNB VPB VPWR Y
.ends

* Black-box entry subcircuit for sky130_fd_sc_hd__o21a_1 abstract view
.subckt sky130_fd_sc_hd__o21a_1 A1 A2 B1 VGND VNB VPB VPWR X
.ends

* Black-box entry subcircuit for sky130_fd_sc_hd__dfrtp_1 abstract view
.subckt sky130_fd_sc_hd__dfrtp_1 CLK D RESET_B VGND VNB VPB VPWR Q
.ends

* Black-box entry subcircuit for sky130_fd_sc_hd__and2_1 abstract view
.subckt sky130_fd_sc_hd__and2_1 A B VGND VNB VPB VPWR X
.ends

* Black-box entry subcircuit for sky130_fd_sc_hd__buf_6 abstract view
.subckt sky130_fd_sc_hd__buf_6 A VGND VNB VPB VPWR X
.ends

* Black-box entry subcircuit for sky130_fd_sc_hd__xor2_1 abstract view
.subckt sky130_fd_sc_hd__xor2_1 A B VGND VNB VPB VPWR X
.ends

* Black-box entry subcircuit for sky130_fd_sc_hd__or4_1 abstract view
.subckt sky130_fd_sc_hd__or4_1 A B C D VGND VNB VPB VPWR X
.ends

* Black-box entry subcircuit for sky130_fd_sc_hd__a21o_1 abstract view
.subckt sky130_fd_sc_hd__a21o_1 A1 A2 B1 VGND VNB VPB VPWR X
.ends

* Black-box entry subcircuit for sky130_fd_sc_hd__dfrtp_2 abstract view
.subckt sky130_fd_sc_hd__dfrtp_2 CLK D RESET_B VGND VNB VPB VPWR Q
.ends

* Black-box entry subcircuit for sky130_fd_sc_hd__a31oi_1 abstract view
.subckt sky130_fd_sc_hd__a31oi_1 A1 A2 A3 B1 VGND VNB VPB VPWR Y
.ends

* Black-box entry subcircuit for sky130_fd_sc_hd__nand2_8 abstract view
.subckt sky130_fd_sc_hd__nand2_8 A B VGND VNB VPB VPWR Y
.ends

* Black-box entry subcircuit for sky130_fd_sc_hd__or4_2 abstract view
.subckt sky130_fd_sc_hd__or4_2 A B C D VGND VNB VPB VPWR X
.ends

* Black-box entry subcircuit for sky130_fd_sc_hd__clkbuf_2 abstract view
.subckt sky130_fd_sc_hd__clkbuf_2 A VGND VNB VPB VPWR X
.ends

* Black-box entry subcircuit for sky130_fd_sc_hd__dfrtp_4 abstract view
.subckt sky130_fd_sc_hd__dfrtp_4 CLK D RESET_B VGND VNB VPB VPWR Q
.ends

* Black-box entry subcircuit for sky130_fd_sc_hd__o31a_1 abstract view
.subckt sky130_fd_sc_hd__o31a_1 A1 A2 A3 B1 VGND VNB VPB VPWR X
.ends

* Black-box entry subcircuit for sky130_fd_sc_hd__clkbuf_4 abstract view
.subckt sky130_fd_sc_hd__clkbuf_4 A VGND VNB VPB VPWR X
.ends

* Black-box entry subcircuit for sky130_fd_sc_hd__or3b_2 abstract view
.subckt sky130_fd_sc_hd__or3b_2 A B C_N VGND VNB VPB VPWR X
.ends

* Black-box entry subcircuit for sky130_fd_sc_hd__or3_1 abstract view
.subckt sky130_fd_sc_hd__or3_1 A B C VGND VNB VPB VPWR X
.ends

* Black-box entry subcircuit for sky130_fd_sc_hd__buf_4 abstract view
.subckt sky130_fd_sc_hd__buf_4 A VGND VNB VPB VPWR X
.ends

* Black-box entry subcircuit for sky130_fd_sc_hd__dlymetal6s2s_1 abstract view
.subckt sky130_fd_sc_hd__dlymetal6s2s_1 A VGND VNB VPB VPWR X
.ends

* Black-box entry subcircuit for sky130_fd_sc_hd__a21o_2 abstract view
.subckt sky130_fd_sc_hd__a21o_2 A1 A2 B1 VGND VNB VPB VPWR X
.ends

* Black-box entry subcircuit for sky130_fd_sc_hd__xnor2_1 abstract view
.subckt sky130_fd_sc_hd__xnor2_1 A B VGND VNB VPB VPWR Y
.ends

* Black-box entry subcircuit for sky130_fd_sc_hd__o221a_1 abstract view
.subckt sky130_fd_sc_hd__o221a_1 A1 A2 B1 B2 C1 VGND VNB VPB VPWR X
.ends

* Black-box entry subcircuit for sky130_fd_sc_hd__clkbuf_16 abstract view
.subckt sky130_fd_sc_hd__clkbuf_16 A VGND VNB VPB VPWR X
.ends

* Black-box entry subcircuit for sky130_fd_sc_hd__a211o_1 abstract view
.subckt sky130_fd_sc_hd__a211o_1 A1 A2 B1 C1 VGND VNB VPB VPWR X
.ends

* Black-box entry subcircuit for sky130_fd_sc_hd__a21oi_1 abstract view
.subckt sky130_fd_sc_hd__a21oi_1 A1 A2 B1 VGND VNB VPB VPWR Y
.ends

* Black-box entry subcircuit for sky130_fd_sc_hd__o21ai_4 abstract view
.subckt sky130_fd_sc_hd__o21ai_4 A1 A2 B1 VGND VNB VPB VPWR Y
.ends

* Black-box entry subcircuit for sky130_fd_sc_hd__o21a_2 abstract view
.subckt sky130_fd_sc_hd__o21a_2 A1 A2 B1 VGND VNB VPB VPWR X
.ends

* Black-box entry subcircuit for sky130_fd_sc_hd__a22o_1 abstract view
.subckt sky130_fd_sc_hd__a22o_1 A1 A2 B1 B2 VGND VNB VPB VPWR X
.ends

* Black-box entry subcircuit for sky130_fd_sc_hd__a21bo_1 abstract view
.subckt sky130_fd_sc_hd__a21bo_1 A1 A2 B1_N VGND VNB VPB VPWR X
.ends

* Black-box entry subcircuit for sky130_fd_sc_hd__o211ai_1 abstract view
.subckt sky130_fd_sc_hd__o211ai_1 A1 A2 B1 C1 VGND VNB VPB VPWR Y
.ends

* Black-box entry subcircuit for sky130_fd_sc_hd__o22a_1 abstract view
.subckt sky130_fd_sc_hd__o22a_1 A1 A2 B1 B2 VGND VNB VPB VPWR X
.ends

* Black-box entry subcircuit for sky130_fd_sc_hd__ebufn_1 abstract view
.subckt sky130_fd_sc_hd__ebufn_1 A TE_B VGND VNB VPB VPWR Z
.ends

* Black-box entry subcircuit for sky130_fd_sc_hd__o21ai_1 abstract view
.subckt sky130_fd_sc_hd__o21ai_1 A1 A2 B1 VGND VNB VPB VPWR Y
.ends

* Black-box entry subcircuit for sky130_fd_sc_hd__o41a_2 abstract view
.subckt sky130_fd_sc_hd__o41a_2 A1 A2 A3 A4 B1 VGND VNB VPB VPWR X
.ends

* Black-box entry subcircuit for sky130_fd_sc_hd__xor2_4 abstract view
.subckt sky130_fd_sc_hd__xor2_4 A B VGND VNB VPB VPWR X
.ends

* Black-box entry subcircuit for sky130_fd_sc_hd__ebufn_4 abstract view
.subckt sky130_fd_sc_hd__ebufn_4 A TE_B VGND VNB VPB VPWR Z
.ends

* Black-box entry subcircuit for sky130_fd_sc_hd__nand2_2 abstract view
.subckt sky130_fd_sc_hd__nand2_2 A B VGND VNB VPB VPWR Y
.ends

* Black-box entry subcircuit for sky130_fd_sc_hd__a31o_2 abstract view
.subckt sky130_fd_sc_hd__a31o_2 A1 A2 A3 B1 VGND VNB VPB VPWR X
.ends

* Black-box entry subcircuit for sky130_fd_sc_hd__o21ba_1 abstract view
.subckt sky130_fd_sc_hd__o21ba_1 A1 A2 B1_N VGND VNB VPB VPWR X
.ends

* Black-box entry subcircuit for sky130_fd_sc_hd__a21oi_2 abstract view
.subckt sky130_fd_sc_hd__a21oi_2 A1 A2 B1 VGND VNB VPB VPWR Y
.ends

* Black-box entry subcircuit for sky130_fd_sc_hd__or4b_1 abstract view
.subckt sky130_fd_sc_hd__or4b_1 A B C D_N VGND VNB VPB VPWR X
.ends

* Black-box entry subcircuit for sky130_fd_sc_hd__a21boi_1 abstract view
.subckt sky130_fd_sc_hd__a21boi_1 A1 A2 B1_N VGND VNB VPB VPWR Y
.ends

* Black-box entry subcircuit for sky130_fd_sc_hd__buf_8 abstract view
.subckt sky130_fd_sc_hd__buf_8 A VGND VNB VPB VPWR X
.ends

* Black-box entry subcircuit for sky130_fd_sc_hd__a2111o_1 abstract view
.subckt sky130_fd_sc_hd__a2111o_1 A1 A2 B1 C1 D1 VGND VNB VPB VPWR X
.ends

* Black-box entry subcircuit for sky130_fd_sc_hd__o32a_1 abstract view
.subckt sky130_fd_sc_hd__o32a_1 A1 A2 A3 B1 B2 VGND VNB VPB VPWR X
.ends

* Black-box entry subcircuit for sky130_fd_sc_hd__xor2_2 abstract view
.subckt sky130_fd_sc_hd__xor2_2 A B VGND VNB VPB VPWR X
.ends

.subckt wrapped_instrumented_adder_kogge active la1_data_in[0] la1_data_in[10] la1_data_in[11]
+ la1_data_in[12] la1_data_in[13] la1_data_in[14] la1_data_in[15] la1_data_in[16]
+ la1_data_in[17] la1_data_in[18] la1_data_in[19] la1_data_in[1] la1_data_in[20] la1_data_in[21]
+ la1_data_in[22] la1_data_in[23] la1_data_in[24] la1_data_in[25] la1_data_in[26]
+ la1_data_in[27] la1_data_in[28] la1_data_in[29] la1_data_in[2] la1_data_in[30] la1_data_in[31]
+ la1_data_in[3] la1_data_in[4] la1_data_in[5] la1_data_in[6] la1_data_in[7] la1_data_in[8]
+ la1_data_in[9] la1_data_out[0] la1_data_out[10] la1_data_out[11] la1_data_out[12]
+ la1_data_out[13] la1_data_out[14] la1_data_out[15] la1_data_out[16] la1_data_out[17]
+ la1_data_out[18] la1_data_out[19] la1_data_out[1] la1_data_out[20] la1_data_out[21]
+ la1_data_out[22] la1_data_out[23] la1_data_out[24] la1_data_out[25] la1_data_out[26]
+ la1_data_out[27] la1_data_out[28] la1_data_out[29] la1_data_out[2] la1_data_out[30]
+ la1_data_out[31] la1_data_out[3] la1_data_out[4] la1_data_out[5] la1_data_out[6]
+ la1_data_out[7] la1_data_out[8] la1_data_out[9] la1_oenb[0] la1_oenb[10] la1_oenb[11]
+ la1_oenb[12] la1_oenb[13] la1_oenb[14] la1_oenb[15] la1_oenb[16] la1_oenb[17] la1_oenb[18]
+ la1_oenb[19] la1_oenb[1] la1_oenb[20] la1_oenb[21] la1_oenb[22] la1_oenb[23] la1_oenb[24]
+ la1_oenb[25] la1_oenb[26] la1_oenb[27] la1_oenb[28] la1_oenb[29] la1_oenb[2] la1_oenb[30]
+ la1_oenb[31] la1_oenb[3] la1_oenb[4] la1_oenb[5] la1_oenb[6] la1_oenb[7] la1_oenb[8]
+ la1_oenb[9] la2_data_in[0] la2_data_in[10] la2_data_in[11] la2_data_in[12] la2_data_in[13]
+ la2_data_in[14] la2_data_in[15] la2_data_in[16] la2_data_in[17] la2_data_in[18]
+ la2_data_in[19] la2_data_in[1] la2_data_in[20] la2_data_in[21] la2_data_in[22] la2_data_in[23]
+ la2_data_in[24] la2_data_in[25] la2_data_in[26] la2_data_in[27] la2_data_in[28]
+ la2_data_in[29] la2_data_in[2] la2_data_in[30] la2_data_in[31] la2_data_in[3] la2_data_in[4]
+ la2_data_in[5] la2_data_in[6] la2_data_in[7] la2_data_in[8] la2_data_in[9] la2_data_out[0]
+ la2_data_out[10] la2_data_out[11] la2_data_out[12] la2_data_out[13] la2_data_out[14]
+ la2_data_out[15] la2_data_out[16] la2_data_out[17] la2_data_out[18] la2_data_out[19]
+ la2_data_out[1] la2_data_out[20] la2_data_out[21] la2_data_out[22] la2_data_out[23]
+ la2_data_out[24] la2_data_out[25] la2_data_out[26] la2_data_out[27] la2_data_out[28]
+ la2_data_out[29] la2_data_out[2] la2_data_out[30] la2_data_out[31] la2_data_out[3]
+ la2_data_out[4] la2_data_out[5] la2_data_out[6] la2_data_out[7] la2_data_out[8]
+ la2_data_out[9] la2_oenb[0] la2_oenb[10] la2_oenb[11] la2_oenb[12] la2_oenb[13]
+ la2_oenb[14] la2_oenb[15] la2_oenb[16] la2_oenb[17] la2_oenb[18] la2_oenb[19] la2_oenb[1]
+ la2_oenb[20] la2_oenb[21] la2_oenb[22] la2_oenb[23] la2_oenb[24] la2_oenb[25] la2_oenb[26]
+ la2_oenb[27] la2_oenb[28] la2_oenb[29] la2_oenb[2] la2_oenb[30] la2_oenb[31] la2_oenb[3]
+ la2_oenb[4] la2_oenb[5] la2_oenb[6] la2_oenb[7] la2_oenb[8] la2_oenb[9] la3_data_in[0]
+ la3_data_in[10] la3_data_in[11] la3_data_in[12] la3_data_in[13] la3_data_in[14]
+ la3_data_in[15] la3_data_in[16] la3_data_in[17] la3_data_in[18] la3_data_in[19]
+ la3_data_in[1] la3_data_in[20] la3_data_in[21] la3_data_in[22] la3_data_in[23] la3_data_in[24]
+ la3_data_in[25] la3_data_in[26] la3_data_in[27] la3_data_in[28] la3_data_in[29]
+ la3_data_in[2] la3_data_in[30] la3_data_in[31] la3_data_in[3] la3_data_in[4] la3_data_in[5]
+ la3_data_in[6] la3_data_in[7] la3_data_in[8] la3_data_in[9] la3_data_out[0] la3_data_out[10]
+ la3_data_out[11] la3_data_out[12] la3_data_out[13] la3_data_out[14] la3_data_out[15]
+ la3_data_out[16] la3_data_out[17] la3_data_out[18] la3_data_out[19] la3_data_out[1]
+ la3_data_out[20] la3_data_out[21] la3_data_out[22] la3_data_out[23] la3_data_out[24]
+ la3_data_out[25] la3_data_out[26] la3_data_out[27] la3_data_out[28] la3_data_out[29]
+ la3_data_out[2] la3_data_out[30] la3_data_out[31] la3_data_out[3] la3_data_out[4]
+ la3_data_out[5] la3_data_out[6] la3_data_out[7] la3_data_out[8] la3_data_out[9]
+ la3_oenb[0] la3_oenb[10] la3_oenb[11] la3_oenb[12] la3_oenb[13] la3_oenb[14] la3_oenb[15]
+ la3_oenb[16] la3_oenb[17] la3_oenb[18] la3_oenb[19] la3_oenb[1] la3_oenb[20] la3_oenb[21]
+ la3_oenb[22] la3_oenb[23] la3_oenb[24] la3_oenb[25] la3_oenb[26] la3_oenb[27] la3_oenb[28]
+ la3_oenb[29] la3_oenb[2] la3_oenb[30] la3_oenb[31] la3_oenb[3] la3_oenb[4] la3_oenb[5]
+ la3_oenb[6] la3_oenb[7] la3_oenb[8] la3_oenb[9] vccd1 vssd1 wb_clk_i
XTAP_188 vssd1 vccd1 sky130_fd_sc_hd__tapvpwrvgnd_1
XTAP_177 vssd1 vccd1 sky130_fd_sc_hd__tapvpwrvgnd_1
XTAP_199 vssd1 vccd1 sky130_fd_sc_hd__tapvpwrvgnd_1
XFILLER_39_233 vssd1 vssd1 vccd1 vccd1 sky130_fd_sc_hd__decap_4
XFILLER_27_417 vssd1 vssd1 vccd1 vccd1 sky130_fd_sc_hd__decap_12
XFILLER_54_269 vssd1 vssd1 vccd1 vccd1 sky130_fd_sc_hd__decap_4
XFILLER_35_461 vssd1 vssd1 vccd1 vccd1 sky130_fd_sc_hd__decap_12
XFILLER_22_133 vssd1 vssd1 vccd1 vccd1 sky130_fd_sc_hd__decap_6
XFILLER_52_29 vssd1 vssd1 vccd1 vccd1 sky130_fd_sc_hd__decap_12
XFILLER_22_144 vssd1 vssd1 vccd1 vccd1 sky130_fd_sc_hd__decap_4
XFILLER_50_475 vssd1 vssd1 vccd1 vccd1 sky130_fd_sc_hd__fill_1
XFILLER_22_188 vssd1 vssd1 vccd1 vccd1 sky130_fd_sc_hd__decap_8
XFILLER_77_15 vssd1 vssd1 vccd1 vccd1 sky130_fd_sc_hd__decap_12
XFILLER_77_317 vssd1 vssd1 vccd1 vccd1 sky130_fd_sc_hd__decap_12
XFILLER_45_203 vssd1 vssd1 vccd1 vccd1 sky130_fd_sc_hd__fill_1
XFILLER_45_214 vssd1 vssd1 vccd1 vccd1 sky130_fd_sc_hd__decap_8
XFILLER_45_225 vssd1 vssd1 vccd1 vccd1 sky130_fd_sc_hd__decap_4
XFILLER_26_41 vssd1 vssd1 vccd1 vccd1 sky130_fd_sc_hd__decap_12
XFILLER_13_111 vssd1 vssd1 vccd1 vccd1 sky130_fd_sc_hd__fill_1
XFILLER_26_85 vssd1 vssd1 vccd1 vccd1 sky130_fd_sc_hd__decap_12
XFILLER_9_137 vssd1 vssd1 vccd1 vccd1 sky130_fd_sc_hd__decap_12
X_1270_ _1270_/A _0950_/Y vssd1 vssd1 vccd1 vccd1 la2_data_out[19] sky130_fd_sc_hd__ebufn_8
XFILLER_67_81 vssd1 vssd1 vccd1 vccd1 sky130_fd_sc_hd__decap_12
XFILLER_64_512 vssd1 vssd1 vccd1 vccd1 sky130_fd_sc_hd__decap_4
XFILLER_17_461 vssd1 vssd1 vccd1 vccd1 sky130_fd_sc_hd__decap_12
XFILLER_32_475 vssd1 vssd1 vccd1 vccd1 sky130_fd_sc_hd__fill_1
X_0985_ _0983_/Y _0985_/B vssd1 vssd1 vccd1 vccd1 _1000_/A sky130_fd_sc_hd__and2b_1
XFILLER_67_361 vssd1 vssd1 vccd1 vccd1 sky130_fd_sc_hd__decap_12
XFILLER_74_309 vssd1 vssd1 vccd1 vccd1 sky130_fd_sc_hd__decap_12
XFILLER_27_225 vssd1 vssd1 vccd1 vccd1 sky130_fd_sc_hd__decap_12
XFILLER_42_217 vssd1 vssd1 vccd1 vccd1 sky130_fd_sc_hd__decap_4
XFILLER_63_28 vssd1 vssd1 vccd1 vccd1 sky130_fd_sc_hd__decap_12
XFILLER_70_515 vssd1 vssd1 vccd1 vccd1 sky130_fd_sc_hd__fill_1
XFILLER_12_65 vssd1 vssd1 vccd1 vccd1 sky130_fd_sc_hd__decap_12
XFILLER_2_346 vssd1 vssd1 vccd1 vccd1 sky130_fd_sc_hd__fill_1
XFILLER_2_357 vssd1 vssd1 vccd1 vccd1 sky130_fd_sc_hd__decap_6
XFILLER_77_125 vssd1 vssd1 vccd1 vccd1 sky130_fd_sc_hd__decap_12
XFILLER_77_169 vssd1 vssd1 vccd1 vccd1 sky130_fd_sc_hd__decap_12
XFILLER_37_51 vssd1 vssd1 vccd1 vccd1 sky130_fd_sc_hd__decap_4
XFILLER_46_512 vssd1 vssd1 vccd1 vccd1 sky130_fd_sc_hd__decap_4
XFILLER_53_50 vssd1 vssd1 vccd1 vccd1 sky130_fd_sc_hd__decap_6
XFILLER_14_486 vssd1 vssd1 vccd1 vccd1 sky130_fd_sc_hd__decap_4
XFILLER_14_475 vssd1 vssd1 vccd1 vccd1 sky130_fd_sc_hd__fill_1
X_0770_ _1120_/Q _0775_/B vssd1 vssd1 vccd1 vccd1 _0776_/A sky130_fd_sc_hd__or2_1
X_1253_ _1253_/A _0893_/Y vssd1 vssd1 vccd1 vccd1 la2_data_out[2] sky130_fd_sc_hd__ebufn_8
XFILLER_49_361 vssd1 vssd1 vccd1 vccd1 sky130_fd_sc_hd__decap_12
XFILLER_20_401 vssd1 vssd1 vccd1 vccd1 sky130_fd_sc_hd__decap_12
XFILLER_20_445 vssd1 vssd1 vccd1 vccd1 sky130_fd_sc_hd__decap_12
X_0968_ _0971_/A vssd1 vssd1 vccd1 vccd1 _0968_/Y sky130_fd_sc_hd__inv_2
X_0899_ _0903_/A vssd1 vssd1 vccd1 vccd1 _0899_/Y sky130_fd_sc_hd__inv_2
XFILLER_59_125 vssd1 vssd1 vccd1 vccd1 sky130_fd_sc_hd__decap_12
XFILLER_59_169 vssd1 vssd1 vccd1 vccd1 sky130_fd_sc_hd__decap_8
XFILLER_28_512 vssd1 vssd1 vccd1 vccd1 sky130_fd_sc_hd__decap_4
XFILLER_74_139 vssd1 vssd1 vccd1 vccd1 sky130_fd_sc_hd__fill_1
XFILLER_55_331 vssd1 vssd1 vccd1 vccd1 sky130_fd_sc_hd__decap_4
XFILLER_74_27 vssd1 vssd1 vccd1 vccd1 sky130_fd_sc_hd__fill_1
XFILLER_15_217 vssd1 vssd1 vccd1 vccd1 sky130_fd_sc_hd__decap_6
XFILLER_43_515 vssd1 vssd1 vccd1 vccd1 sky130_fd_sc_hd__fill_1
XFILLER_15_228 vssd1 vssd1 vccd1 vccd1 sky130_fd_sc_hd__decap_12
XFILLER_70_345 vssd1 vssd1 vccd1 vccd1 sky130_fd_sc_hd__decap_12
XFILLER_23_250 vssd1 vssd1 vccd1 vccd1 sky130_fd_sc_hd__decap_4
XFILLER_70_389 vssd1 vssd1 vccd1 vccd1 sky130_fd_sc_hd__decap_12
XFILLER_7_405 vssd1 vssd1 vccd1 vccd1 sky130_fd_sc_hd__decap_12
XFILLER_7_449 vssd1 vssd1 vccd1 vccd1 sky130_fd_sc_hd__decap_12
XFILLER_2_121 vssd1 vssd1 vccd1 vccd1 sky130_fd_sc_hd__decap_12
XFILLER_78_401 vssd1 vssd1 vccd1 vccd1 sky130_fd_sc_hd__decap_12
XFILLER_78_445 vssd1 vssd1 vccd1 vccd1 sky130_fd_sc_hd__decap_4
XFILLER_38_309 vssd1 vssd1 vccd1 vccd1 sky130_fd_sc_hd__decap_4
XFILLER_48_83 vssd1 vssd1 vccd1 vccd1 sky130_fd_sc_hd__fill_1
XFILLER_0_24 vssd1 vssd1 vccd1 vccd1 sky130_fd_sc_hd__decap_4
XFILLER_46_331 vssd1 vssd1 vccd1 vccd1 sky130_fd_sc_hd__decap_12
XFILLER_58_180 vssd1 vssd1 vccd1 vccd1 sky130_fd_sc_hd__decap_4
XFILLER_0_57 vssd1 vssd1 vccd1 vccd1 sky130_fd_sc_hd__fill_2
XFILLER_73_161 vssd1 vssd1 vccd1 vccd1 sky130_fd_sc_hd__decap_6
XFILLER_21_209 vssd1 vssd1 vccd1 vccd1 sky130_fd_sc_hd__decap_12
XFILLER_9_55 vssd1 vssd1 vccd1 vccd1 sky130_fd_sc_hd__fill_1
X_0822_ _0798_/A input35/X _0816_/B _0818_/B vssd1 vssd1 vccd1 vccd1 _0822_/X sky130_fd_sc_hd__o2bb2a_1
X_0753_ _0722_/X input51/X _0750_/X _1125_/Q _0752_/Y vssd1 vssd1 vccd1 vccd1 _1125_/D
+ sky130_fd_sc_hd__a221o_1
X_0684_ _1251_/A vssd1 vssd1 vccd1 vccd1 _0710_/A sky130_fd_sc_hd__clkbuf_1
XFILLER_50_3 vssd1 vssd1 vccd1 vccd1 sky130_fd_sc_hd__decap_12
X_1305_ _1305_/A _0971_/Y vssd1 vssd1 vccd1 vccd1 la3_data_out[22] sky130_fd_sc_hd__ebufn_8
XFILLER_49_180 vssd1 vssd1 vccd1 vccd1 sky130_fd_sc_hd__decap_4
XFILLER_56_139 vssd1 vssd1 vccd1 vccd1 sky130_fd_sc_hd__fill_1
X_1236_ _1236_/A _0936_/Y vssd1 vssd1 vccd1 vccd1 la1_data_out[17] sky130_fd_sc_hd__ebufn_8
XFILLER_12_209 vssd1 vssd1 vccd1 vccd1 sky130_fd_sc_hd__decap_12
X_1098_ _1098_/A vssd1 vssd1 vccd1 vccd1 _1098_/Y sky130_fd_sc_hd__inv_2
XFILLER_52_389 vssd1 vssd1 vccd1 vccd1 sky130_fd_sc_hd__decap_12
XFILLER_20_253 vssd1 vssd1 vccd1 vccd1 sky130_fd_sc_hd__decap_12
XFILLER_60_29 vssd1 vssd1 vccd1 vccd1 sky130_fd_sc_hd__decap_12
XFILLER_4_419 vssd1 vssd1 vccd1 vccd1 sky130_fd_sc_hd__fill_1
XFILLER_69_27 vssd1 vssd1 vccd1 vccd1 sky130_fd_sc_hd__decap_12
XFILLER_18_53 vssd1 vssd1 vccd1 vccd1 sky130_fd_sc_hd__decap_12
XFILLER_62_109 vssd1 vssd1 vccd1 vccd1 sky130_fd_sc_hd__decap_12
XFILLER_18_97 vssd1 vssd1 vccd1 vccd1 sky130_fd_sc_hd__decap_12
XFILLER_70_153 vssd1 vssd1 vccd1 vccd1 sky130_fd_sc_hd__decap_12
XFILLER_34_41 vssd1 vssd1 vccd1 vccd1 sky130_fd_sc_hd__decap_12
XFILLER_34_85 vssd1 vssd1 vccd1 vccd1 sky130_fd_sc_hd__decap_8
XFILLER_70_197 vssd1 vssd1 vccd1 vccd1 sky130_fd_sc_hd__decap_12
XFILLER_7_279 vssd1 vssd1 vccd1 vccd1 sky130_fd_sc_hd__fill_1
X_1192__109 vssd1 vssd1 vccd1 vccd1 _1192__109/HI _1288_/A sky130_fd_sc_hd__conb_1
XTAP_507 vssd1 vccd1 sky130_fd_sc_hd__tapvpwrvgnd_1
XTAP_518 vssd1 vccd1 sky130_fd_sc_hd__tapvpwrvgnd_1
XTAP_529 vssd1 vccd1 sky130_fd_sc_hd__tapvpwrvgnd_1
XFILLER_78_220 vssd1 vssd1 vccd1 vccd1 sky130_fd_sc_hd__decap_12
XFILLER_59_93 vssd1 vssd1 vccd1 vccd1 sky130_fd_sc_hd__decap_12
XFILLER_78_253 vssd1 vssd1 vccd1 vccd1 sky130_fd_sc_hd__decap_4
X_1021_ _1021_/A _1021_/B vssd1 vssd1 vccd1 vccd1 _1226_/A sky130_fd_sc_hd__xnor2_4
XFILLER_75_81 vssd1 vssd1 vccd1 vccd1 sky130_fd_sc_hd__decap_12
XFILLER_61_153 vssd1 vssd1 vccd1 vccd1 sky130_fd_sc_hd__fill_1
XFILLER_34_389 vssd1 vssd1 vccd1 vccd1 sky130_fd_sc_hd__decap_12
X_0805_ _0805_/A _0805_/B _0805_/C vssd1 vssd1 vccd1 vccd1 _0806_/B sky130_fd_sc_hd__and3_1
X_0736_ _0850_/A _0736_/B _0724_/C vssd1 vssd1 vccd1 vccd1 _0736_/X sky130_fd_sc_hd__or3b_1
X_0667_ _0667_/A vssd1 vssd1 vccd1 vccd1 _1144_/D sky130_fd_sc_hd__clkbuf_1
X_0598_ _1253_/A _1251_/A _0685_/D _0598_/D vssd1 vssd1 vccd1 vccd1 _0672_/B sky130_fd_sc_hd__and4_1
XFILLER_29_128 vssd1 vssd1 vccd1 vccd1 sky130_fd_sc_hd__fill_2
X_1219_ _1219_/A _0865_/Y vssd1 vssd1 vccd1 vccd1 la1_data_out[0] sky130_fd_sc_hd__ebufn_8
XFILLER_52_153 vssd1 vssd1 vccd1 vccd1 sky130_fd_sc_hd__decap_3
XFILLER_52_197 vssd1 vssd1 vccd1 vccd1 sky130_fd_sc_hd__decap_12
XFILLER_4_216 vssd1 vssd1 vccd1 vccd1 sky130_fd_sc_hd__decap_4
XFILLER_20_65 vssd1 vssd1 vccd1 vccd1 sky130_fd_sc_hd__decap_12
XFILLER_0_433 vssd1 vssd1 vccd1 vccd1 sky130_fd_sc_hd__fill_1
XFILLER_0_444 vssd1 vssd1 vccd1 vccd1 sky130_fd_sc_hd__decap_4
XFILLER_0_477 vssd1 vssd1 vccd1 vccd1 sky130_fd_sc_hd__fill_2
XFILLER_75_223 vssd1 vssd1 vccd1 vccd1 sky130_fd_sc_hd__fill_1
XFILLER_16_301 vssd1 vssd1 vccd1 vccd1 sky130_fd_sc_hd__decap_6
XFILLER_63_429 vssd1 vssd1 vccd1 vccd1 sky130_fd_sc_hd__decap_12
XFILLER_16_345 vssd1 vssd1 vccd1 vccd1 sky130_fd_sc_hd__decap_12
XFILLER_45_51 vssd1 vssd1 vccd1 vccd1 sky130_fd_sc_hd__decap_4
XFILLER_16_389 vssd1 vssd1 vccd1 vccd1 sky130_fd_sc_hd__decap_12
XFILLER_31_326 vssd1 vssd1 vccd1 vccd1 sky130_fd_sc_hd__decap_8
XFILLER_43_164 vssd1 vssd1 vccd1 vccd1 sky130_fd_sc_hd__decap_4
XFILLER_71_473 vssd1 vssd1 vccd1 vccd1 sky130_fd_sc_hd__decap_12
XFILLER_31_337 vssd1 vssd1 vccd1 vccd1 sky130_fd_sc_hd__decap_12
XFILLER_43_197 vssd1 vssd1 vccd1 vccd1 sky130_fd_sc_hd__decap_4
XANTENNA_5 input1/X vssd1 vssd1 vccd1 vccd1 sky130_fd_sc_hd__diode_2
XTAP_315 vssd1 vccd1 sky130_fd_sc_hd__tapvpwrvgnd_1
XTAP_304 vssd1 vccd1 sky130_fd_sc_hd__tapvpwrvgnd_1
XTAP_348 vssd1 vccd1 sky130_fd_sc_hd__tapvpwrvgnd_1
XTAP_337 vssd1 vccd1 sky130_fd_sc_hd__tapvpwrvgnd_1
XTAP_326 vssd1 vccd1 sky130_fd_sc_hd__tapvpwrvgnd_1
XFILLER_3_293 vssd1 vssd1 vccd1 vccd1 sky130_fd_sc_hd__decap_12
XTAP_359 vssd1 vccd1 sky130_fd_sc_hd__tapvpwrvgnd_1
XFILLER_13_3 vssd1 vssd1 vccd1 vccd1 sky130_fd_sc_hd__decap_12
XFILLER_19_161 vssd1 vssd1 vccd1 vccd1 sky130_fd_sc_hd__decap_6
XFILLER_81_237 vssd1 vssd1 vccd1 vccd1 sky130_fd_sc_hd__decap_12
XFILLER_19_194 vssd1 vssd1 vccd1 vccd1 sky130_fd_sc_hd__decap_12
X_1004_ _1004_/A _1004_/B vssd1 vssd1 vccd1 vccd1 _1005_/B sky130_fd_sc_hd__nor2_1
XFILLER_34_153 vssd1 vssd1 vccd1 vccd1 sky130_fd_sc_hd__decap_12
X_0719_ input57/X _0716_/X _0807_/S vssd1 vssd1 vccd1 vccd1 _0720_/A sky130_fd_sc_hd__mux2_1
XFILLER_57_201 vssd1 vssd1 vccd1 vccd1 sky130_fd_sc_hd__fill_1
XTAP_860 vssd1 vccd1 sky130_fd_sc_hd__tapvpwrvgnd_1
XTAP_871 vssd1 vccd1 sky130_fd_sc_hd__tapvpwrvgnd_1
XTAP_882 vssd1 vccd1 sky130_fd_sc_hd__tapvpwrvgnd_1
XTAP_893 vssd1 vccd1 sky130_fd_sc_hd__tapvpwrvgnd_1
XFILLER_45_429 vssd1 vssd1 vccd1 vccd1 sky130_fd_sc_hd__decap_12
XFILLER_82_27 vssd1 vssd1 vccd1 vccd1 sky130_fd_sc_hd__fill_1
XFILLER_25_164 vssd1 vssd1 vccd1 vccd1 sky130_fd_sc_hd__decap_4
XFILLER_53_473 vssd1 vssd1 vccd1 vccd1 sky130_fd_sc_hd__decap_12
XFILLER_13_337 vssd1 vssd1 vccd1 vccd1 sky130_fd_sc_hd__decap_12
XFILLER_40_145 vssd1 vssd1 vccd1 vccd1 sky130_fd_sc_hd__decap_6
XFILLER_48_212 vssd1 vssd1 vccd1 vccd1 sky130_fd_sc_hd__decap_3
XFILLER_56_83 vssd1 vssd1 vccd1 vccd1 sky130_fd_sc_hd__fill_1
XFILLER_16_197 vssd1 vssd1 vccd1 vccd1 sky130_fd_sc_hd__decap_12
XFILLER_71_281 vssd1 vssd1 vccd1 vccd1 sky130_fd_sc_hd__decap_12
XFILLER_8_363 vssd1 vssd1 vccd1 vccd1 sky130_fd_sc_hd__fill_1
X_1198__115 vssd1 vssd1 vccd1 vccd1 _1198__115/HI _1294_/A sky130_fd_sc_hd__conb_1
XTAP_167 vssd1 vccd1 sky130_fd_sc_hd__tapvpwrvgnd_1
XTAP_189 vssd1 vccd1 sky130_fd_sc_hd__tapvpwrvgnd_1
XTAP_178 vssd1 vccd1 sky130_fd_sc_hd__tapvpwrvgnd_1
XFILLER_39_223 vssd1 vssd1 vccd1 vccd1 sky130_fd_sc_hd__fill_1
XFILLER_27_429 vssd1 vssd1 vccd1 vccd1 sky130_fd_sc_hd__decap_12
XFILLER_35_473 vssd1 vssd1 vccd1 vccd1 sky130_fd_sc_hd__decap_12
XFILLER_50_421 vssd1 vssd1 vccd1 vccd1 sky130_fd_sc_hd__decap_12
XFILLER_10_307 vssd1 vssd1 vccd1 vccd1 sky130_fd_sc_hd__fill_1
XFILLER_22_156 vssd1 vssd1 vccd1 vccd1 sky130_fd_sc_hd__decap_6
XFILLER_22_167 vssd1 vssd1 vccd1 vccd1 sky130_fd_sc_hd__decap_4
XFILLER_77_27 vssd1 vssd1 vccd1 vccd1 sky130_fd_sc_hd__decap_12
XFILLER_77_329 vssd1 vssd1 vccd1 vccd1 sky130_fd_sc_hd__decap_6
XTAP_690 vssd1 vccd1 sky130_fd_sc_hd__tapvpwrvgnd_1
XFILLER_26_53 vssd1 vssd1 vccd1 vccd1 sky130_fd_sc_hd__decap_12
XFILLER_60_218 vssd1 vssd1 vccd1 vccd1 sky130_fd_sc_hd__decap_4
XFILLER_26_97 vssd1 vssd1 vccd1 vccd1 sky130_fd_sc_hd__decap_6
XFILLER_53_281 vssd1 vssd1 vccd1 vccd1 sky130_fd_sc_hd__fill_2
XFILLER_13_167 vssd1 vssd1 vccd1 vccd1 sky130_fd_sc_hd__fill_1
XFILLER_9_105 vssd1 vssd1 vccd1 vccd1 sky130_fd_sc_hd__decap_6
XFILLER_9_149 vssd1 vssd1 vccd1 vccd1 sky130_fd_sc_hd__decap_12
XFILLER_42_41 vssd1 vssd1 vccd1 vccd1 sky130_fd_sc_hd__decap_12
XFILLER_42_85 vssd1 vssd1 vccd1 vccd1 sky130_fd_sc_hd__decap_4
Xinstrumented_adder.inverters\[11\]._0_ instrumented_adder.inverters\[11\]._0_/A vssd1
+ vssd1 vccd1 vccd1 instrumented_adder.inverters\[12\]._0_/A sky130_fd_sc_hd__inv_2
XFILLER_3_13 vssd1 vssd1 vccd1 vccd1 sky130_fd_sc_hd__decap_4
XFILLER_68_307 vssd1 vssd1 vccd1 vccd1 sky130_fd_sc_hd__fill_1
XFILLER_3_57 vssd1 vssd1 vccd1 vccd1 sky130_fd_sc_hd__decap_12
Xinstrumented_adder.inverters\[26\]._0_ instrumented_adder.inverters\[26\]._0_/A vssd1
+ vssd1 vccd1 vccd1 instrumented_adder.inverters\[27\]._0_/A sky130_fd_sc_hd__inv_2
XFILLER_67_93 vssd1 vssd1 vccd1 vccd1 sky130_fd_sc_hd__decap_12
XFILLER_17_473 vssd1 vssd1 vccd1 vccd1 sky130_fd_sc_hd__decap_4
XFILLER_32_421 vssd1 vssd1 vccd1 vccd1 sky130_fd_sc_hd__decap_12
XFILLER_32_487 vssd1 vssd1 vccd1 vccd1 sky130_fd_sc_hd__decap_4
X_0984_ _0984_/A _0984_/B vssd1 vssd1 vccd1 vccd1 _0985_/B sky130_fd_sc_hd__nand2_1
XFILLER_59_307 vssd1 vssd1 vccd1 vccd1 sky130_fd_sc_hd__decap_6
XFILLER_67_373 vssd1 vssd1 vccd1 vccd1 sky130_fd_sc_hd__decap_12
XFILLER_82_332 vssd1 vssd1 vccd1 vccd1 sky130_fd_sc_hd__decap_4
XFILLER_82_321 vssd1 vssd1 vccd1 vccd1 sky130_fd_sc_hd__fill_1
XFILLER_27_237 vssd1 vssd1 vccd1 vccd1 sky130_fd_sc_hd__decap_6
XFILLER_27_248 vssd1 vssd1 vccd1 vccd1 sky130_fd_sc_hd__decap_4
XFILLER_82_365 vssd1 vssd1 vccd1 vccd1 sky130_fd_sc_hd__decap_12
XFILLER_35_281 vssd1 vssd1 vccd1 vccd1 sky130_fd_sc_hd__decap_4
XFILLER_50_251 vssd1 vssd1 vccd1 vccd1 sky130_fd_sc_hd__fill_1
XFILLER_50_284 vssd1 vssd1 vccd1 vccd1 sky130_fd_sc_hd__decap_4
XFILLER_12_77 vssd1 vssd1 vccd1 vccd1 sky130_fd_sc_hd__decap_6
XFILLER_77_137 vssd1 vssd1 vccd1 vccd1 sky130_fd_sc_hd__decap_12
XFILLER_61_505 vssd1 vssd1 vccd1 vccd1 sky130_fd_sc_hd__decap_8
XFILLER_14_421 vssd1 vssd1 vccd1 vccd1 sky130_fd_sc_hd__decap_12
XFILLER_5_196 vssd1 vssd1 vccd1 vccd1 sky130_fd_sc_hd__decap_8
X_1252_ _1252_/A _0942_/Y vssd1 vssd1 vccd1 vccd1 la2_data_out[1] sky130_fd_sc_hd__ebufn_8
XFILLER_49_373 vssd1 vssd1 vccd1 vccd1 sky130_fd_sc_hd__decap_12
XFILLER_64_321 vssd1 vssd1 vccd1 vccd1 sky130_fd_sc_hd__decap_12
XFILLER_64_365 vssd1 vssd1 vccd1 vccd1 sky130_fd_sc_hd__decap_12
XFILLER_17_281 vssd1 vssd1 vccd1 vccd1 sky130_fd_sc_hd__decap_12
XFILLER_20_413 vssd1 vssd1 vccd1 vccd1 sky130_fd_sc_hd__decap_6
XFILLER_32_273 vssd1 vssd1 vccd1 vccd1 sky130_fd_sc_hd__decap_8
XFILLER_20_457 vssd1 vssd1 vccd1 vccd1 sky130_fd_sc_hd__decap_12
X_0967_ _0971_/A vssd1 vssd1 vccd1 vccd1 _0967_/Y sky130_fd_sc_hd__inv_2
X_0898_ _0910_/A vssd1 vssd1 vccd1 vccd1 _0903_/A sky130_fd_sc_hd__buf_2
XFILLER_58_18 vssd1 vssd1 vccd1 vccd1 sky130_fd_sc_hd__decap_8
XFILLER_58_29 vssd1 vssd1 vccd1 vccd1 sky130_fd_sc_hd__decap_12
XFILLER_59_137 vssd1 vssd1 vccd1 vccd1 sky130_fd_sc_hd__decap_12